******************* 1.8V NMOS2 *************************
.MODEL N2.1 NMOS
