* ***********************************************************
* *                     ROHM SPICE MODEL                    *
* ***********************************************************
*
*    PROCESS : BU40N1(0.18um CMOS)
*    MODEL   : BSIM3v3.2(LEVEL53)
*    VERSION : 1.0
*    DATE    : 2003.4.8
*    SPICE VERSION : HSPICE 98.2
*    extract WA Lot No.S000233-07
*
*     Attention
*        1)  HDIF depends on the real distance from poly
*            spacer to contact center.
*            The value listed here is SPICE TEG value.
*            You should change it according to your layout.
*        2)  Please entry AD/AS and PD/PS.If you do not
*            entry,you can not get correct results.
*        3)  Please use bu30n1.skw file
*
*    These spice models are applied to the DRAWING image.
*
*


* ---
* Resistor
* ---
.MODEL R R

.MODEL RPS R

* ---
* Capacitor
* ---
.MODEL M4 C


* ***********************************************************
* *                        Model Type                       *
* ***********************************************************
*
*            3.3V     NMOS Tr  HN  <- ND
*            3.3V     PMOS Tr  HP  <- PD
*            1.8V     NMOS Tr  N
*            1.8V     PMOS Tr  P
*


****************************************************
*             1.8V NMOS Model Typical  - 2004.2.16 *
****************************************************
******************* 1.8V NMOS1 *************************
.MODEL N.1 NMOS 
+ LMIN = 0.50e-6
+ LMAX = 10.1e-6
+ WMIN = 1.00e-6
+ WMAX = 10.1e-6
+ VERSION = 3.2
+ LEVEL = 53
+ MOBMOD = 3 
+ CAPMOD = 3 
+ TNOM = 25 
+ TOX = toxn
+ XJ = 1.5E-07 
+ NCH = 1.7E+17 
+ U0 = 276.8 
+ VTH0 = 'delvtn + 0.4624 '
+ K1 = 0.4128 
+ K2 = -0.0161 
+ K3 = -1.009 
+ K3B = 2.166 
+ W0 = 1E-09 
+ NLX = 9.138E-08 
+ DVT0 = 4.323 
+ DVT1 = 1 
+ DVT2 = -0.0977 
+ DVT0W = 1.544E+04 
+ DVT1W = 6.973E+07 
+ DVT2W = 0.9068 
+ LINT = 2.178E-08 
+ WINT = 2.415E-08 
+ DWG = -2.655E-08 
+ DWB = 0 
+ UA = -1.454E-09 
+ UB = 2.691E-18 
+ UC = 0.1808 
+ VSAT = 1.825E+05 
+ DELTA = 0.0004935 
+ A0 = 1.019 
+ B0 = 3E-05 
+ B1 = 3E-05 
+ AGS = 1.311 
+ KETA = -0.009693 
+ A1 = 0.003522 
+ A2 = 0.3071 
+ RDSW = 283.7 
+ PRWG = -4.441E-13 
+ PRWB = -4.441E-18 
+ WR = 1.088 
+ VOFF = -0.1662 
+ NFACTOR = 1.52 
+ CDSC = -0.004789 
+ CDSCD = -0.0001 
+ CDSCB = -0.004294 
+ CIT = 0 
+ ETA0 = 0.004397 
+ ETAB = -0.0003448 
+ DSUB = 1 
+ PCLM = 2.36 
+ PDIBLC1 = 0.0719 
+ PDIBLC2 = 0.009 
+ PDIBLCB = -0.1 
+ DROUT = 0.1547 
+ PSCBE1 = 1E+06 
+ PSCBE2 = 0 
+ PVAG = 5 
+ ALPHA0 = 3.441E-05 
+ BETA0 = 22.16 
+ UTE = -2.622 
+ KT1 = -0.3323 
+ KT1L = 1E-08 
+ KT2 = 4.441E-16 
+ UA1 = 6.326E-10 
+ UB1 = -2.44E-18 
+ UC1 = -1.444E-15 
+ AT = 1.539E+04 
+ PRT = 0 
*+ CGSO = 1E-12 
*+ CGSL = 1E-11 
*+ CGDL = 1E-11 
*+ CKAPPA = 0.6 
*+ CGDO = 1E-12 
*+ CGBO = 1E-12 
*+ DLC = 2.178E-08 
*+ DWC = 2.415E-08 
+ CLC = 1E-07 
+ CLE = 0.6 
*+ CF = 0 
+ ELM = 5 
+ CJ = 0.0009478 
+ VOFFCV = 0 
+ NOFF = 1 
+ CJSW = 2.968E-10 
+ PB = 0.7758 
+ PBSW = 1 
+ MJ = 0.2932 
+ MJSW = 0.4036 
+ TPB = 2.175E-09 
+ TPBSW = 1E-15 
+ TPBSWG = 0 
+ TCJ = 0.001 
+ TCJSW = 1.44E-15 
+ TCJSWG = 0 
+ XPART = 0 
+ JS = 6E-06 
+ WL = -3.982E-15 
+ WLN = 1.09 
+ WW = -6.167E-15 
+ WWN = 0.813 
+ WWL = 0 
+ LL = 0 
+ LW = 0 
+ LWN = 0 
+ LWL = 0 
+ LLN = 1 
+ LXJ = 0 
+ LU0 = 0 
+ LVTH0 = 0 
+ LK1 = 0 
+ LK2 = 0 
+ LK3 = 0 
+ LK3B = 0 
+ LW0 = 0 
+ LNLX = 0 
+ LDVT0 = 0 
+ LDVT1 = 0 
+ LDVT2 = 0 
+ LDVT0W = 0 
+ LDVT1W = 0 
+ LDVT2W = 0 
+ LUA = 0 
+ LUB = 0 
+ LUC = 0 
+ LVSAT = 0 
+ LA0 = 0 
+ LKETA = 0 
+ LAGS = 0 
+ LA1 = 0 
+ LA2 = 0 
+ LB0 = 0 
+ LB1 = 0 
+ LRDSW = 0 
+ LPRWG = 0 
+ LPRWB = 0 
+ LWR = 0 
+ LVOFF = 0 
+ LNFACTOR = 0 
+ LCDSC = 0 
+ LCDSCB = 0 
+ LCDSCD = 0 
+ LCIT = 0 
+ LETA0 = 0 
+ LETAB = 0 
+ LDSUB = 0 
+ LPCLM = 0 
+ LPDIBLC1 = 0 
+ LPDIBLC2 = 0 
+ LPDIBLCB = 0 
+ LDROUT = 0 
+ LPSCBE1 = 0 
+ LPSCBE2 = 0 
+ LPVAG = 0 
+ LDWG = 0 
+ LDWB = 0 
+ LALPHA0 = 0 
+ LBETA0 = 0 
+ LKT1 = 0 
+ LKT1L = 0 
+ LKT2 = 0 
+ LUTE = 0 
+ LAT = 0 
+ LPRT = 0 
+ LNCH = 0 
+ WXJ = 0 
+ WU0 = 0 
+ WVTH0 = 0 
+ WK1 = 0 
+ WK2 = 0 
+ WK3 = 0 
+ WK3B = 0 
+ WW0 = 0 
+ WNLX = 0 
+ WDVT0 = 0 
+ WDVT1 = 0 
+ WDVT2 = 0 
+ WDVT0W = 0 
+ WDVT1W = 0 
+ WDVT2W = 0 
+ WUA = 0 
+ WUB = 0 
+ WUC = 0 
+ WVSAT = 0 
+ WA0 = 0 
+ WKETA = 0 
+ WAGS = 0 
+ WA1 = 0 
+ WA2 = 0 
+ WB0 = 0 
+ WB1 = 0 
+ WRDSW = 0 
+ WPRWG = 0 
+ WPRWB = 0 
+ WWR = 0 
+ WVOFF = 0 
+ WNFACTOR = 0 
+ WCDSC = 0 
+ WCDSCB = 0 
+ WCDSCD = 0 
+ WCIT = 0 
+ WETA0 = 0 
+ WETAB = 0 
+ WDSUB = 0 
+ WPCLM = 0 
+ WPDIBLC1 = 0 
+ WPDIBLC2 = 0 
+ WPDIBLCB = 0 
+ WDROUT = 0 
+ WPSCBE1 = 0 
+ WPSCBE2 = 0 
+ WPVAG = 0 
+ WDWG = 0 
+ WDWB = 0 
+ WALPHA0 = 0 
+ WBETA0 = 0 
+ WKT1 = 0 
+ WKT1L = 0 
+ WKT2 = 0 
+ WUTE = 0 
+ WAT = 0 
+ WPRT = 0 
+ WNCH = 0 
+ PXJ = 0 
+ PU0 = 0 
+ PVTH0 = 0 
+ PK1 = 0 
+ PK2 = 0 
+ PK3 = 0 
+ PK3B = 0 
+ PW0 = 0 
+ PNLX = 0 
+ PDVT0 = 0 
+ PDVT1 = 0 
+ PDVT2 = 0 
+ PDVT0W = 0 
+ PDVT1W = 0 
+ PDVT2W = 0 
+ PUA = 0 
+ PUB = 0 
+ PUC = 0 
+ PVSAT = 0 
+ PA0 = 0 
+ PKETA = 0 
+ PAGS = 0 
+ PA1 = 0 
+ PA2 = 0 
+ PB0 = 0 
+ PB1 = 0 
+ PRDSW = 0 
+ PPRWG = 0 
+ PPRWB = 0 
+ PWR = 0 
+ PVOFF = 0 
+ PNFACTOR = 0 
+ PCDSC = 0 
+ PCDSCB = 0 
+ PCDSCD = 0 
+ PCIT = 0 
+ PETA0 = 0 
+ PETAB = 0 
+ PDSUB = 0 
+ PPCLM = 0 
+ PPDIBLC1 = 0 
+ PPDIBLC2 = 0 
+ PPDIBLCB = 0 
+ PDROUT = 0 
+ PPSCBE1 = 0 
+ PPSCBE2 = 0 
+ PPVAG = 0 
+ PDWG = 0 
+ PDWB = 0 
+ PALPHA0 = 0 
+ PBETA0 = 0 
+ PKT1 = 0 
+ PKT1L = 0 
+ PKT2 = 0 
+ PUTE = 0 
+ PAT = 0 
+ PPRT = 0 
+ PNCH = 0 
+ BINUNIT = 1 
+ ACM = 2
+ RSH = rshn
+ XL = xln
+ XW = xwn
+ LDIF = 0
+ HDIF = 6.4e-7
+ CF = '1.0E-8*3.4531438e-11/toxn'

******************* 1.8V NMOS2 *************************

.MODEL N.2 NMOS 
+ LMIN = 0.18e-6
+ LMAX = 0.50e-6
+ WMIN = 1.00e-6
+ WMAX = 10.1e-6
+ VERSION = 3.2
+ LEVEL = 53
+ MOBMOD = 3 
+ CAPMOD = 3 
+ TNOM = 25 
+ TOX = toxn
+ XJ = 1.5E-07 
+ NCH = 1.7E+17 
+ U0 = 276.8 
+ VTH0 = 'delvtn + 0.4624 '
+ K1 = 0.4128 
+ K2 = -0.0161 
+ K3 = 8.095 
+ K3B = 5.101 
+ W0 = 1E-09 
+ NLX = 8.967E-08 
+ DVT0 = 4.26 
+ DVT1 = 1.248 
+ DVT2 = -0.1 
+ DVT0W = 1.544E+04 
+ DVT1W = 6.973E+07 
+ DVT2W = 0 
+ LINT = 2.378E-08 
+ WINT = 4.612E-09 
+ DWG = -3.682E-08 
+ DWB = 0 
+ UA = -1.473E-09 
+ UB = 2.642E-18 
+ UC = 0.2385 
+ VSAT = 9.217E+04 
+ DELTA = 1.444E-15 
+ A0 = 1.766 
+ B0 = -8.838E-06 
+ B1 = 2.43E-05 
+ AGS = 0.7566 
+ KETA = 0.0159 
+ A1 = 0.0005758 
+ A2 = 0.6551 
+ RDSW = 290.9 
+ PRWG = -0.009464 
+ PRWB = 0 
+ WR = 1.038 
+ VOFF = -0.1662 
+ NFACTOR = 1.172 
+ CDSC = 0.002468 
+ CDSCD = -0.0001 
+ CDSCB = -0.001006 
+ CIT = 0 
+ ETA0 = 0.01787 
+ ETAB = -0.0619 
+ DSUB = 0.7451 
+ PCLM = 1.844 
+ PDIBLC1 = 0.43 
+ PDIBLC2 = 0.0008522 
+ PDIBLCB = -4.441E-16 
+ DROUT = 0.9994 
+ PSCBE1 = 3.792E+07 
+ PSCBE2 = 0 
+ PVAG = 0.2047 
+ ALPHA0 = 3.609E-06 
+ BETA0 = 16.53 
+ UTE = -2.297 
+ KT1 = -0.248 
+ KT1L = 1.579E-09 
+ KT2 = 4.441E-16 
+ UA1 = 1.713E-09 
+ UB1 = -3.511E-18 
+ UC1 = -0.1888 
+ AT = 5.076E+04 
+ PRT = 0 
*+ CGSO = 1E-12 
*+ CGSL = 1E-11 
*+ CGDL = 1E-11 
*+ CKAPPA = 0.6 
*+ CGDO = 1E-12 
*+ CGBO = 1E-12 
+ DLC = 2.378E-08 
+ DWC = 4.612E-09 
+ CLC = 1E-07 
+ CLE = 0.6 
*+ CF = 0 
+ ELM = 5 
+ CJ = 0.0009478 
+ VOFFCV = 0 
+ NOFF = 1 
+ CJSW = 2.968E-10 
+ PB = 0.7758 
+ PBSW = 1 
+ MJ = 0.2932 
+ MJSW = 0.4036 
+ TPB = 2.175E-09 
+ TPBSW = 1E-15 
+ TPBSWG = 0 
+ TCJ = 0.001 
+ TCJSW = 1.444E-15 
+ TCJSWG = 0 
+ XPART = 0 
+ JS = 6E-06 
+ WL = 8E-16 
+ WLN = 1.12 
+ WW = -1E-15 
+ WWN = 1 
+ WWL = 0 
+ LL = 0 
+ LW = 0 
+ LWN = 0 
+ LWL = 0 
+ LLN = 1 
+ LXJ = 0 
+ LU0 = 0 
+ LVTH0 = 0 
+ LK1 = 0 
+ LK2 = 0 
+ LK3 = 0 
+ LK3B = 0 
+ LW0 = 0 
+ LNLX = 0 
+ LDVT0 = 0 
+ LDVT1 = 0 
+ LDVT2 = 0 
+ LDVT0W = 0 
+ LDVT1W = 0 
+ LDVT2W = 0 
+ LUA = 0 
+ LUB = 0 
+ LUC = 0 
+ LVSAT = 0 
+ LA0 = 0 
+ LKETA = 0 
+ LAGS = 0 
+ LA1 = 0 
+ LA2 = 0 
+ LB0 = 0 
+ LB1 = 0 
+ LRDSW = 0 
+ LPRWG = 0 
+ LPRWB = 0 
+ LWR = 0 
+ LVOFF = 0 
+ LNFACTOR = 0 
+ LCDSC = 0 
+ LCDSCB = 0 
+ LCDSCD = 0 
+ LCIT = 0 
+ LETA0 = 0 
+ LETAB = 0 
+ LDSUB = 0 
+ LPCLM = 0 
+ LPDIBLC1 = 0 
+ LPDIBLC2 = 0 
+ LPDIBLCB = 0 
+ LDROUT = 0 
+ LPSCBE1 = 0 
+ LPSCBE2 = 0 
+ LPVAG = 0 
+ LDWG = 0 
+ LDWB = 0 
+ LALPHA0 = 0 
+ LBETA0 = 0 
+ LKT1 = 0 
+ LKT1L = 0 
+ LKT2 = 0 
+ LUTE = 0 
+ LAT = 0 
+ LPRT = 0 
+ LNCH = 0 
+ WXJ = 0 
+ WU0 = 0 
+ WVTH0 = 0 
+ WK1 = 0 
+ WK2 = 0 
+ WK3 = 0 
+ WK3B = 0 
+ WW0 = 0 
+ WNLX = 0 
+ WDVT0 = 0 
+ WDVT1 = 0 
+ WDVT2 = 0 
+ WDVT0W = 0 
+ WDVT1W = 0 
+ WDVT2W = 0 
+ WUA = 0 
+ WUB = 0 
+ WUC = 0 
+ WVSAT = 0 
+ WA0 = 0 
+ WKETA = 0 
+ WAGS = 0 
+ WA1 = 0 
+ WA2 = 0 
+ WB0 = 0 
+ WB1 = 0 
+ WRDSW = 0 
+ WPRWG = 0 
+ WPRWB = 0 
+ WWR = 0 
+ WVOFF = 0 
+ WNFACTOR = 0 
+ WCDSC = 0 
+ WCDSCB = 0 
+ WCDSCD = 0 
+ WCIT = 0 
+ WETA0 = 0 
+ WETAB = 0 
+ WDSUB = 0 
+ WPCLM = 0 
+ WPDIBLC1 = 0 
+ WPDIBLC2 = 0 
+ WPDIBLCB = 0 
+ WDROUT = 0 
+ WPSCBE1 = 0 
+ WPSCBE2 = 0 
+ WPVAG = 0 
+ WDWG = 0 
+ WDWB = 0 
+ WALPHA0 = 0 
+ WBETA0 = 0 
+ WKT1 = 0 
+ WKT1L = 0 
+ WKT2 = 0 
+ WUTE = 0 
+ WAT = 0 
+ WPRT = 0 
+ WNCH = 0 
+ PXJ = 0 
+ PU0 = 0 
+ PVTH0 = 0 
+ PK1 = 0 
+ PK2 = 0 
+ PK3 = 0 
+ PK3B = 0 
+ PW0 = 0 
+ PNLX = 0 
+ PDVT0 = 0 
+ PDVT1 = 0 
+ PDVT2 = 0 
+ PDVT0W = 0 
+ PDVT1W = 0 
+ PDVT2W = 0 
+ PUA = 0 
+ PUB = 0 
+ PUC = 0 
+ PVSAT = 0 
+ PA0 = 0 
+ PKETA = 0 
+ PAGS = 0 
+ PA1 = 0 
+ PA2 = 0 
+ PB0 = 0 
+ PB1 = 0 
+ PRDSW = 0 
+ PPRWG = 0 
+ PPRWB = 0 
+ PWR = 0 
+ PVOFF = 0 
+ PNFACTOR = 0 
+ PCDSC = 0 
+ PCDSCB = 0 
+ PCDSCD = 0 
+ PCIT = 0 
+ PETA0 = 0 
+ PETAB = 0 
+ PDSUB = 0 
+ PPCLM = 0 
+ PPDIBLC1 = 0 
+ PPDIBLC2 = 0 
+ PPDIBLCB = 0 
+ PDROUT = 0 
+ PPSCBE1 = 0 
+ PPSCBE2 = 0 
+ PPVAG = 0 
+ PDWG = 0 
+ PDWB = 0 
+ PALPHA0 = 0 
+ PBETA0 = 0 
+ PKT1 = 0 
+ PKT1L = 0 
+ PKT2 = 0 
+ PUTE = 0 
+ PAT = 0 
+ PPRT = 0 
+ PNCH = 0 
+ BINUNIT = 1 
+ ACM = 2
+ RSH = rshn
+ XL = xln
+ XW = xwn
+ LDIF = 0
+ HDIF = 6.4e-7
+ CF = '1.0E-8*3.4531438e-11/toxn'

******************* 1.8V NMOS3 *************************

.MODEL N.3 NMOS 
+ LMIN = 0.50e-6
+ LMAX = 10.1e-6
+ WMIN = 0.50e-6
+ WMAX = 1.00e-6
+ VERSION = 3.2
+ LEVEL = 53
+ MOBMOD = 3 
+ CAPMOD = 3 
+ TNOM = 25 
+ TOX = toxn
+ XJ = 1.5E-07 
+ NCH = 1.7E+17 
+ U0 = 276.8 
+ VTH0 = 'delvtn + 0.4744'
+ K1 = 0.4466 
+ K2 = -0.02548 
+ K3 = -1.009 
+ K3B = 2.166 
+ W0 = 1E-09 
+ NLX = 9.241E-08 
+ DVT0 = 10 
+ DVT1 = 1 
+ DVT2 = -0.1 
+ DVT0W = 1.544E+04 
+ DVT1W = 6.973E+07 
+ DVT2W = 0 
+ LINT = 2.677E-08 
+ WINT = 8.968E-09 
+ DWG = -1.178E-08 
+ DWB = 0 
+ UA = -1.476E-09 
+ UB = 2.741E-18 
+ UC = 0.1848 
+ VSAT = 2.091E+05 
+ DELTA = 1.444E-15 
+ A0 = 1.094 
+ B0 = 4.2E-05 
+ B1 = 8.5E-05 
+ AGS = 0.98 
+ KETA = -0.03273 
+ A1 = 0.01176 
+ A2 = 0.9 
+ RDSW = 251.5 
+ PRWG = -0.01013 
+ PRWB = -4.441E-18 
+ WR = 0.1 
+ VOFF = -0.2 
+ NFACTOR = 2 
+ CDSC = -1 
+ CDSCD = -0.0001 
+ CDSCB = -0.7319 
+ CIT = 0 
+ ETA0 = 0.003657 
+ ETAB = -4.461E-05 
+ DSUB = 1 
+ PCLM = 1.175 
+ PDIBLC1 = 0.07944 
+ PDIBLC2 = 0.01 
+ PDIBLCB = -0.1 
+ DROUT = 0.1699 
+ PSCBE1 = 1E+06 
+ PSCBE2 = 0 
+ PVAG = 2.712 
+ ALPHA0 = 3.115E-06 
+ BETA0 = 18.02 
+ UTE = -2.57 
+ KT1 = -0.2725 
+ KT1L = 1E-08 
+ KT2 = 4.441E-16 
+ UA1 = 5.28E-10 
+ UB1 = -2.227E-18 
+ UC1 = -1.444E-15 
+ AT = 1000 
+ PRT = 1E-12 
*+ CGSO = 1E-12 
*+ CGSL = 1E-11 
*+ CGDL = 1E-11 
*+ CKAPPA = 0.6 
*+ CGDO = 1E-12 
*+ CGBO = 1E-12 
+ DLC = 2.677E-08 
+ DWC = 8.968E-09 
+ CLC = 1E-07 
+ CLE = 0.6 
*+ CF = 0 
+ ELM = 5 
+ CJ = 0.0009478 
+ VOFFCV = 0 
+ NOFF = 1 
+ CJSW = 2.968E-10 
+ PB = 0.7758 
+ PBSW = 1 
+ MJ = 0.2932 
+ MJSW = 0.4036 
+ TPB = 2.175E-09 
+ TPBSW = 1E-15 
+ TPBSWG = 0 
+ TCJ = 0.001 
+ TCJSW = 1.444E-15 
+ TCJSWG = 0 
+ XPART = 0 
+ JS = 6E-06 
+ WL = 1E-15 
+ WLN = 0.94 
+ WW = -1.956E-13 
+ WWN = 0.805 
+ WWL = 0 
+ LL = 0 
+ LW = 0 
+ LWN = 0 
+ LWL = 0 
+ LLN = 1 
+ LXJ = 0 
+ LU0 = 0 
+ LVTH0 = 0 
+ LK1 = 0 
+ LK2 = 0 
+ LK3 = 0 
+ LK3B = 0 
+ LW0 = 0 
+ LNLX = 0 
+ LDVT0 = 0 
+ LDVT1 = 0 
+ LDVT2 = 0 
+ LDVT0W = 0 
+ LDVT1W = 0 
+ LDVT2W = 0 
+ LUA = 0 
+ LUB = 0 
+ LUC = 0 
+ LVSAT = 0 
+ LA0 = 0 
+ LKETA = 0 
+ LAGS = 0 
+ LA1 = 0 
+ LA2 = 0 
+ LB0 = 0 
+ LB1 = 0 
+ LRDSW = 0 
+ LPRWG = 0 
+ LPRWB = 0 
+ LWR = 0 
+ LVOFF = 0 
+ LNFACTOR = 0 
+ LCDSC = 0 
+ LCDSCB = 0 
+ LCDSCD = 0 
+ LCIT = 0 
+ LETA0 = 0 
+ LETAB = 0 
+ LDSUB = 0 
+ LPCLM = 0 
+ LPDIBLC1 = 0 
+ LPDIBLC2 = 0 
+ LPDIBLCB = 0 
+ LDROUT = 0 
+ LPSCBE1 = 0 
+ LPSCBE2 = 0 
+ LPVAG = 0 
+ LDWG = 0 
+ LDWB = 0 
+ LALPHA0 = 0 
+ LBETA0 = 0 
+ LKT1 = 0 
+ LKT1L = 0 
+ LKT2 = 0 
+ LUTE = 0 
+ LAT = 0 
+ LPRT = 0 
+ LNCH = 0 
+ WXJ = 0 
+ WU0 = 0 
+ WVTH0 = 0 
+ WK1 = 0 
+ WK2 = 0 
+ WK3 = 0 
+ WK3B = 0 
+ WW0 = 0 
+ WNLX = 0 
+ WDVT0 = 0 
+ WDVT1 = 0 
+ WDVT2 = 0 
+ WDVT0W = 0 
+ WDVT1W = 0 
+ WDVT2W = 0 
+ WUA = 0 
+ WUB = 0 
+ WUC = 0 
+ WVSAT = 0 
+ WA0 = 0 
+ WKETA = 0 
+ WAGS = 0 
+ WA1 = 0 
+ WA2 = 0 
+ WB0 = 0 
+ WB1 = 0 
+ WRDSW = 0 
+ WPRWG = 0 
+ WPRWB = 0 
+ WWR = 0 
+ WVOFF = 0 
+ WNFACTOR = 0 
+ WCDSC = 0 
+ WCDSCB = 0 
+ WCDSCD = 0 
+ WCIT = 0 
+ WETA0 = 0 
+ WETAB = 0 
+ WDSUB = 0 
+ WPCLM = 0 
+ WPDIBLC1 = 0 
+ WPDIBLC2 = 0 
+ WPDIBLCB = 0 
+ WDROUT = 0 
+ WPSCBE1 = 0 
+ WPSCBE2 = 0 
+ WPVAG = 0 
+ WDWG = 0 
+ WDWB = 0 
+ WALPHA0 = 0 
+ WBETA0 = 0 
+ WKT1 = 0 
+ WKT1L = 0 
+ WKT2 = 0 
+ WUTE = 0 
+ WAT = 0 
+ WPRT = 0 
+ WNCH = 0 
+ PXJ = 0 
+ PU0 = 0 
+ PVTH0 = 0 
+ PK1 = 0 
+ PK2 = 0 
+ PK3 = 0 
+ PK3B = 0 
+ PW0 = 0 
+ PNLX = 0 
+ PDVT0 = 0 
+ PDVT1 = 0 
+ PDVT2 = 0 
+ PDVT0W = 0 
+ PDVT1W = 0 
+ PDVT2W = 0 
+ PUA = 0 
+ PUB = 0 
+ PUC = 0 
+ PVSAT = 0 
+ PA0 = 0 
+ PKETA = 0 
+ PAGS = 0 
+ PA1 = 0 
+ PA2 = 0 
+ PB0 = 0 
+ PB1 = 0 
+ PRDSW = 0 
+ PPRWG = 0 
+ PPRWB = 0 
+ PWR = 0 
+ PVOFF = 0 
+ PNFACTOR = 0 
+ PCDSC = 0 
+ PCDSCB = 0 
+ PCDSCD = 0 
+ PCIT = 0 
+ PETA0 = 0 
+ PETAB = 0 
+ PDSUB = 0 
+ PPCLM = 0 
+ PPDIBLC1 = 0 
+ PPDIBLC2 = 0 
+ PPDIBLCB = 0 
+ PDROUT = 0 
+ PPSCBE1 = 0 
+ PPSCBE2 = 0 
+ PPVAG = 0 
+ PDWG = 0 
+ PDWB = 0 
+ PALPHA0 = 0 
+ PBETA0 = 0 
+ PKT1 = 0 
+ PKT1L = 0 
+ PKT2 = 0 
+ PUTE = 0 
+ PAT = 0 
+ PPRT = 0 
+ PNCH = 0 
+ BINUNIT = 1 
+ ACM = 2
+ RSH = rshn
+ XL = xln
+ XW = xwn
+ LDIF = 0
+ HDIF = 6.4e-7
+ CF = '1.0E-8*3.4531438e-11/toxn'

******************* 1.8V NMOS4 *************************

.MODEL N.4 NMOS 
+ LMIN = 0.24e-6
+ LMAX = 0.50e-6
+ WMIN = 0.50e-6
+ WMAX = 1.00e-6
+ VERSION = 3.2
+ LEVEL = 53
+ MOBMOD = 3 
+ CAPMOD = 3 
+ TNOM = 25 
+ TOX = toxn
+ XJ = 1.5E-07 
+ NCH = 1.7E+17 
+ U0 = 276.8 
+ VTH0 = 'delvtn + 0.4633'
+ K1 = 0.4622 
+ K2 = -0.04045 
+ K3 = -0.1796 
+ K3B = 3.612 
+ W0 = 1E-09 
+ NLX = 1.291E-07 
+ DVT0 = 7.023 
+ DVT1 = 1.349 
+ DVT2 = -0.01304 
+ DVT0W = 1.283 
+ DVT1W = 1.077E+06 
+ DVT2W = 0 
+ LINT = 2.695E-08 
+ WINT = 4.188E-09 
+ DWG = -1.5E-08 
+ DWB = -2.45E-08 
+ UA = -1.37E-09 
+ UB = 2.378E-18 
+ UC = 0.1 
+ VSAT = 1.011E+05 
+ DELTA = 0.0002622 
+ A0 = 1.254 
+ B0 = 1E-09 
+ B1 = 0.0001 
+ AGS = 1.2 
+ KETA = -0.001084 
+ A1 = 1E-12 
+ A2 = 0.5347 
+ RDSW = 412.8 
+ PRWG = -0.2091 
+ PRWB = -4.441E-18 
+ WR = 0.9754 
+ VOFF = -0.1858 
+ NFACTOR = 1.611 
+ CDSC = -0.009865 
+ CDSCD = -0.01717 
+ CDSCB = -0.02683 
+ CIT = 0 
+ ETA0 = 1E-06 
+ ETAB = -0.09966 
+ DSUB = 0.7227 
+ PCLM = 1.812 
+ PDIBLC1 = 0.2389 
+ PDIBLC2 = 0.01 
+ PDIBLCB = 0 
+ DROUT = 0.8846 
+ PSCBE1 = 1.239E+07 
+ PSCBE2 = 0 
+ PVAG = 4.441E-15 
+ ALPHA0 = 7.981E-07 
+ BETA0 = 17.13 
+ UTE = -2.532 
+ KT1 = -0.2359 
+ KT1L = 6.507E-09 
+ KT2 = 4.441E-16 
+ UA1 = 4.385E-10 
+ UB1 = -1.828E-18 
+ UC1 = -1.444E-15 
+ AT = 4.185E+04 
+ PRT = 0 
*+ CGSO = 1E-12 
*+ CGSL = 1E-11 
*+ CGDL = 1E-11 
*+ CKAPPA = 0.6 
*+ CGDO = 1E-12 
*+ CGBO = 1E-12 
+ DLC = 2.695E-08 
+ DWC = 4.188E-09 
+ CLC = 1E-07 
+ CLE = 0.6 
*+ CF = 0 
+ ELM = 5 
+ CJ = 0.0009478 
+ VOFFCV = 0 
+ NOFF = 1 
+ CJSW = 2.968E-10 
+ PB = 0.7758 
+ PBSW = 1 
+ MJ = 0.2932 
+ MJSW = 0.4036 
+ TPB = 2.175E-09 
+ TPBSW = 1E-15 
+ TPBSWG = 0 
+ TCJ = 0.001 
+ TCJSW = 1.444E-15 
+ TCJSWG = 0 
+ XPART = 0 
+ JS = 6E-06 
+ WL = -2.682E-15 
+ WLN = 1.053 
+ WW = -4.167E-15 
+ WWN = 0.5713 
+ WWL = 0 
+ LL = 0 
+ LW = 0 
+ LWN = 0 
+ LWL = 0 
+ LLN = 1 
+ LXJ = 0 
+ LU0 = 0 
+ LVTH0 = 0 
+ LK1 = 0 
+ LK2 = 0 
+ LK3 = 0 
+ LK3B = 0 
+ LW0 = 0 
+ LNLX = 0 
+ LDVT0 = 0 
+ LDVT1 = 0 
+ LDVT2 = 0 
+ LDVT0W = 0 
+ LDVT1W = 0 
+ LDVT2W = 0 
+ LUA = 0 
+ LUB = 0 
+ LUC = 0 
+ LVSAT = 0 
+ LA0 = 0 
+ LKETA = 0 
+ LAGS = 0 
+ LA1 = 0 
+ LA2 = 0 
+ LB0 = 0 
+ LB1 = 0 
+ LRDSW = 0 
+ LPRWG = 0 
+ LPRWB = 0 
+ LWR = 0 
+ LVOFF = 0 
+ LNFACTOR = 0 
+ LCDSC = 0 
+ LCDSCB = 0 
+ LCDSCD = 0 
+ LCIT = 0 
+ LETA0 = 0 
+ LETAB = 0 
+ LDSUB = 0 
+ LPCLM = 0 
+ LPDIBLC1 = 0 
+ LPDIBLC2 = 0 
+ LPDIBLCB = 0 
+ LDROUT = 0 
+ LPSCBE1 = 0 
+ LPSCBE2 = 0 
+ LPVAG = 0 
+ LDWG = 0 
+ LDWB = 0 
+ LALPHA0 = 0 
+ LBETA0 = 0 
+ LKT1 = 0 
+ LKT1L = 0 
+ LKT2 = 0 
+ LUTE = 0 
+ LAT = 0 
+ LPRT = 0 
+ LNCH = 0 
+ WXJ = 0 
+ WU0 = 0 
+ WVTH0 = 0 
+ WK1 = 0 
+ WK2 = 0 
+ WK3 = 0 
+ WK3B = 0 
+ WW0 = 0 
+ WNLX = 0 
+ WDVT0 = 0 
+ WDVT1 = 0 
+ WDVT2 = 0 
+ WDVT0W = 0 
+ WDVT1W = 0 
+ WDVT2W = 0 
+ WUA = 0 
+ WUB = 0 
+ WUC = 0 
+ WVSAT = 0 
+ WA0 = 0 
+ WKETA = 0 
+ WAGS = 0 
+ WA1 = 0 
+ WA2 = 0 
+ WB0 = 0 
+ WB1 = 0 
+ WRDSW = 0 
+ WPRWG = 0 
+ WPRWB = 0 
+ WWR = 0 
+ WVOFF = 0 
+ WNFACTOR = 0 
+ WCDSC = 0 
+ WCDSCB = 0 
+ WCDSCD = 0 
+ WCIT = 0 
+ WETA0 = 0 
+ WETAB = 0 
+ WDSUB = 0 
+ WPCLM = 0 
+ WPDIBLC1 = 0 
+ WPDIBLC2 = 0 
+ WPDIBLCB = 0 
+ WDROUT = 0 
+ WPSCBE1 = 0 
+ WPSCBE2 = 0 
+ WPVAG = 0 
+ WDWG = 0 
+ WDWB = 0 
+ WALPHA0 = 0 
+ WBETA0 = 0 
+ WKT1 = 0 
+ WKT1L = 0 
+ WKT2 = 0 
+ WUTE = 0 
+ WAT = 0 
+ WPRT = 0 
+ WNCH = 0 
+ PXJ = 0 
+ PU0 = 0 
+ PVTH0 = 0 
+ PK1 = 0 
+ PK2 = 0 
+ PK3 = 0 
+ PK3B = 0 
+ PW0 = 0 
+ PNLX = 0 
+ PDVT0 = 0 
+ PDVT1 = 0 
+ PDVT2 = 0 
+ PDVT0W = 0 
+ PDVT1W = 0 
+ PDVT2W = 0 
+ PUA = 0 
+ PUB = 0 
+ PUC = 0 
+ PVSAT = 0 
+ PA0 = 0 
+ PKETA = 0 
+ PAGS = 0 
+ PA1 = 0 
+ PA2 = 0 
+ PB0 = 0 
+ PB1 = 0 
+ PRDSW = 0 
+ PPRWG = 0 
+ PPRWB = 0 
+ PWR = 0 
+ PVOFF = 0 
+ PNFACTOR = 0 
+ PCDSC = 0 
+ PCDSCB = 0 
+ PCDSCD = 0 
+ PCIT = 0 
+ PETA0 = 0 
+ PETAB = 0 
+ PDSUB = 0 
+ PPCLM = 0 
+ PPDIBLC1 = 0 
+ PPDIBLC2 = 0 
+ PPDIBLCB = 0 
+ PDROUT = 0 
+ PPSCBE1 = 0 
+ PPSCBE2 = 0 
+ PPVAG = 0 
+ PDWG = 0 
+ PDWB = 0 
+ PALPHA0 = 0 
+ PBETA0 = 0 
+ PKT1 = 0 
+ PKT1L = 0 
+ PKT2 = 0 
+ PUTE = 0 
+ PAT = 0 
+ PPRT = 0 
+ PNCH = 0 
+ BINUNIT = 1 
+ ACM = 2
+ RSH = rshn
+ XL = xln
+ XW = xwn
+ LDIF = 0
+ HDIF = 6.4e-7
+ CF = '1.0E-8*3.4531438e-11/toxn'

******************* 1.8V NMOS5 *************************

.MODEL N.5 NMOS 
+ LMIN = 0.18e-6
+ LMAX = 0.24e-6
+ WMIN = 0.50e-6
+ WMAX = 1.00e-6
+ VERSION = 3.2
+ LEVEL = 53
+ MOBMOD = 3 
+ CAPMOD = 3 
+ TNOM = 25 
+ TOX = toxn
+ XJ = 1.5E-07 
+ NCH = 1.7E+17 
+ U0 = 276.8 
+ VTH0 = 'delvtn + 0.4503'
+ K1 = 0.563 
+ K2 = -0.08032 
+ K3 = -8.284 
+ K3B = 3.131 
+ W0 = 1E-09 
+ NLX = 1.587E-07 
+ DVT0 = 3.652 
+ DVT1 = 0.8203 
+ DVT2 = -4.441E-17 
+ DVT0W = 3.331E+05 
+ DVT1W = 1.006E+08 
+ DVT2W = 0 
+ LINT = 1.833E-08 
+ WINT = -1.123E-08 
+ DWG = -1.068E-08 
+ DWB = 0 
+ UA = -1.157E-09 
+ UB = 1.934E-18 
+ UC = 0.1 
+ VSAT = 9.401E+04 
+ DELTA = 1.444E-15 
+ A0 = 1.446 
+ B0 = 1E-09 
+ B1 = 0.0001 
+ AGS = 1.691 
+ KETA = 0.02664 
+ A1 = 8.142E-07 
+ A2 = 0.6583 
+ RDSW = 327.2 
+ PRWG = -4.441E-13 
+ PRWB = -4.441E-18 
+ WR = 0.9779 
+ VOFF = -0.1791 
+ NFACTOR = 1.961 
+ CDSC = 0.003417 
+ CDSCD = -0.005353 
+ CDSCB = -0.002162 
+ CIT = 0 
+ ETA0 = 0.04908 
+ ETAB = -1E-06 
+ DSUB = 0.4985 
+ PCLM = 1.569 
+ PDIBLC1 = 0.07326 
+ PDIBLC2 = 0.009787 
+ PDIBLCB = -0.1 
+ DROUT = 1 
+ PSCBE1 = 6.494E+07 
+ PSCBE2 = 0 
+ PVAG = 4.057E-08 
+ ALPHA0 = 7.284E-08 
+ BETA0 = 13.17 
+ UTE = -2.169 
+ KT1 = -0.2221 
+ KT1L = 6.449E-09 
+ KT2 = 4.441E-16 
+ UA1 = 2.377E-10 
+ UB1 = -1.247E-18 
+ UC1 = -1.444E-15 
+ AT = 4.978E+04 
+ PRT = -1 
*+ CGSO = 1E-12 
*+ CGSL = 1E-11 
*+ CGDL = 1E-11 
*+ CKAPPA = 0.6 
*+ CGDO = 1E-12 
*+ CGBO = 1E-12 
+ DLC = 1.833E-08 
+ DWC = -1.123E-08 
+ CLC = 1E-07 
+ CLE = 0.6 
*+ CF = 0 
+ ELM = 5 
+ CJ = 0.0009478 
+ VOFFCV = 0 
+ NOFF = 1 
+ CJSW = 2.968E-10 
+ PB = 0.7758 
+ PBSW = 1 
+ MJ = 0.2932 
+ MJSW = 0.4036 
+ TPB = 2.175E-09 
+ TPBSW = 1E-15 
+ TPBSWG = 0 
+ TCJ = 0.001 
+ TCJSW = 1.444E-15 
+ TCJSWG = 0 
+ XPART = 0 
+ JS = 6E-06 
+ WL = -3.977E-15 
+ WLN = 0.99 
+ WW = -6.785E-13 
+ WWN = 0.001 
+ WWL = 0 
+ LL = 0 
+ LW = 0 
+ LWN = 0 
+ LWL = 0 
+ LLN = 1 
+ LXJ = 0 
+ LU0 = 0 
+ LVTH0 = 0 
+ LK1 = 0 
+ LK2 = 0 
+ LK3 = 0 
+ LK3B = 0 
+ LW0 = 0 
+ LNLX = 0 
+ LDVT0 = 0 
+ LDVT1 = 0 
+ LDVT2 = 0 
+ LDVT0W = 0 
+ LDVT1W = 0 
+ LDVT2W = 0 
+ LUA = 0 
+ LUB = 0 
+ LUC = 0 
+ LVSAT = 0 
+ LA0 = 0 
+ LKETA = 0 
+ LAGS = 0 
+ LA1 = 0 
+ LA2 = 0 
+ LB0 = 0 
+ LB1 = 0 
+ LRDSW = 0 
+ LPRWG = 0 
+ LPRWB = 0 
+ LWR = 0 
+ LVOFF = 0 
+ LNFACTOR = 0 
+ LCDSC = 0 
+ LCDSCB = 0 
+ LCDSCD = 0 
+ LCIT = 0 
+ LETA0 = 0 
+ LETAB = 0 
+ LDSUB = 0 
+ LPCLM = 0 
+ LPDIBLC1 = 0 
+ LPDIBLC2 = 0 
+ LPDIBLCB = 0 
+ LDROUT = 0 
+ LPSCBE1 = 0 
+ LPSCBE2 = 0 
+ LPVAG = 0 
+ LDWG = 0 
+ LDWB = 0 
+ LALPHA0 = 0 
+ LBETA0 = 0 
+ LKT1 = 0 
+ LKT1L = 0 
+ LKT2 = 0 
+ LUTE = 0 
+ LAT = 0 
+ LPRT = 0 
+ LNCH = 0 
+ WXJ = 0 
+ WU0 = 0 
+ WVTH0 = 0 
+ WK1 = 0 
+ WK2 = 0 
+ WK3 = 0 
+ WK3B = 0 
+ WW0 = 0 
+ WNLX = 0 
+ WDVT0 = 0 
+ WDVT1 = 0 
+ WDVT2 = 0 
+ WDVT0W = 0 
+ WDVT1W = 0 
+ WDVT2W = 0 
+ WUA = 0 
+ WUB = 0 
+ WUC = 0 
+ WVSAT = 0 
+ WA0 = 0 
+ WKETA = 0 
+ WAGS = 0 
+ WA1 = 0 
+ WA2 = 0 
+ WB0 = 0 
+ WB1 = 0 
+ WRDSW = 0 
+ WPRWG = 0 
+ WPRWB = 0 
+ WWR = 0 
+ WVOFF = 0 
+ WNFACTOR = 0 
+ WCDSC = 0 
+ WCDSCB = 0 
+ WCDSCD = 0 
+ WCIT = 0 
+ WETA0 = 0 
+ WETAB = 0 
+ WDSUB = 0 
+ WPCLM = 0 
+ WPDIBLC1 = 0 
+ WPDIBLC2 = 0 
+ WPDIBLCB = 0 
+ WDROUT = 0 
+ WPSCBE1 = 0 
+ WPSCBE2 = 0 
+ WPVAG = 0 
+ WDWG = 0 
+ WDWB = 0 
+ WALPHA0 = 0 
+ WBETA0 = 0 
+ WKT1 = 0 
+ WKT1L = 0 
+ WKT2 = 0 
+ WUTE = 0 
+ WAT = 0 
+ WPRT = 0 
+ WNCH = 0 
+ PXJ = 0 
+ PU0 = 0 
+ PVTH0 = 0 
+ PK1 = 0 
+ PK2 = 0 
+ PK3 = 0 
+ PK3B = 0 
+ PW0 = 0 
+ PNLX = 0 
+ PDVT0 = 0 
+ PDVT1 = 0 
+ PDVT2 = 0 
+ PDVT0W = 0 
+ PDVT1W = 0 
+ PDVT2W = 0 
+ PUA = 0 
+ PUB = 0 
+ PUC = 0 
+ PVSAT = 0 
+ PA0 = 0 
+ PKETA = 0 
+ PAGS = 0 
+ PA1 = 0 
+ PA2 = 0 
+ PB0 = 0 
+ PB1 = 0 
+ PRDSW = 0 
+ PPRWG = 0 
+ PPRWB = 0 
+ PWR = 0 
+ PVOFF = 0 
+ PNFACTOR = 0 
+ PCDSC = 0 
+ PCDSCB = 0 
+ PCDSCD = 0 
+ PCIT = 0 
+ PETA0 = 0 
+ PETAB = 0 
+ PDSUB = 0 
+ PPCLM = 0 
+ PPDIBLC1 = 0 
+ PPDIBLC2 = 0 
+ PPDIBLCB = 0 
+ PDROUT = 0 
+ PPSCBE1 = 0 
+ PPSCBE2 = 0 
+ PPVAG = 0 
+ PDWG = 0 
+ PDWB = 0 
+ PALPHA0 = 0 
+ PBETA0 = 0 
+ PKT1 = 0 
+ PKT1L = 0 
+ PKT2 = 0 
+ PUTE = 0 
+ PAT = 0 
+ PPRT = 0 
+ PNCH = 0 
+ BINUNIT = 1 
+ ACM = 2
+ RSH = rshn
+ XL = xln
+ XW = xwn
+ LDIF = 0
+ HDIF = 6.4e-7
+ CF = '1.0E-8*3.4531438e-11/toxn'

******************* 1.8V NMOS6 *************************

.MODEL N.6 NMOS 
+ LMIN = 1.00e-6
+ LMAX = 10.1e-6
+ WMIN = 0.22e-6
+ WMAX = 0.50e-6
+ VERSION = 3.2
+ LEVEL = 53
+ MOBMOD = 3 
+ CAPMOD = 3 
+ TNOM = 25 
+ TOX = toxn
+ XJ = 1.5E-07 
+ NCH = 1.7E+17 
+ U0 = 276.8 
+ VTH0 = 'delvtn + 0.471'
+ K1 = 0.4757 
+ K2 = -0.0378 
+ K3 = -2.127 
+ K3B = 2.392 
+ W0 = 1E-09 
+ NLX = 9.242E-08 
+ DVT0 = 10 
+ DVT1 = 0.9731 
+ DVT2 = -0.03092 
+ DVT0W = 1.544E+04 
+ DVT1W = 6.973E+07 
+ DVT2W = 0 
+ LINT = 9.008E-08 
+ WINT = 8.105E-09 
+ DWG = -7E-09 
+ DWB = 0 
+ UA = -1.338E-09 
+ UB = 2.552E-18 
+ UC = 0.1 
+ VSAT = 2.091E+05 
+ DELTA = 1.444E-15 
+ A0 = 1.094 
+ B0 = 4.172E-05 
+ B1 = 9.739E-05 
+ AGS = 0.95 
+ KETA = -0.03273 
+ A1 = 0.01176 
+ A2 = 0.9 
+ RDSW = 690 
+ PRWG = -0.395 
+ PRWB = -4.441E-18 
+ WR = 1.22 
+ VOFF = -0.1974 
+ NFACTOR = 1.867 
+ CDSC = 1 
+ CDSCD = -0.0001 
+ CDSCB = -1 
+ CIT = 0 
+ ETA0 = 5.389E-05 
+ ETAB = -0.0843 
+ DSUB = 0.6201 
+ PCLM = 1.329 
+ PDIBLC1 = 4.441E-16 
+ PDIBLC2 = 0.007944 
+ PDIBLCB = -4.441E-17 
+ DROUT = 0.9704 
+ PSCBE1 = 1E+06 
+ PSCBE2 = 0 
+ PVAG = 4.441E-15 
+ ALPHA0 = 6.397E-05 
+ BETA0 = 21.7 
+ UTE = -2.752 
+ KT1 = -0.2695 
+ KT1L = 1.812E-09 
+ KT2 = 4.441E-16 
+ UA1 = 1E-18 
+ UB1 = -2.019E-18 
+ UC1 = -1.444E-15 
+ AT = 3.445E+05 
+ PRT = 1 
*+ CGSO = 1E-12 
*+ CGSL = 1E-11 
*+ CGDL = 1E-11 
*+ CKAPPA = 0.6 
*+ CGDO = 1E-12 
*+ CGBO = 1E-12 
+ DLC = 9.008E-08 
+ DWC = 8.105E-09 
+ CLC = 1E-07 
+ CLE = 0.6 
*+ CF = 0 
+ ELM = 5 
+ CJ = 0.0009478 
+ VOFFCV = 0 
+ NOFF = 1 
+ CJSW = 2.968E-10 
+ PB = 0.7758 
+ PBSW = 1 
+ MJ = 0.2932 
+ MJSW = 0.4036 
+ TPB = 2.175E-09 
+ TPBSW = 1E-15 
+ TPBSWG = 0 
+ TCJ = 0.001 
+ TCJSW = 1.444E-15 
+ TCJSWG = 0 
+ XPART = 0 
+ JS = 6E-06 
+ WL = 0 
+ WLN = 0.99 
+ WW = -1.546E-13 
+ WWN = 0.78 
+ WWL = 0 
+ LL = 0 
+ LW = 0 
+ LWN = 0 
+ LWL = 0 
+ LLN = 1 
+ LXJ = 0 
+ LU0 = 0 
+ LVTH0 = 0 
+ LK1 = 0 
+ LK2 = 0 
+ LK3 = 0 
+ LK3B = 0 
+ LW0 = 0 
+ LNLX = 0 
+ LDVT0 = 0 
+ LDVT1 = 0 
+ LDVT2 = 0 
+ LDVT0W = 0 
+ LDVT1W = 0 
+ LDVT2W = 0 
+ LUA = 0 
+ LUB = 0 
+ LUC = 0 
+ LVSAT = 0 
+ LA0 = 0 
+ LKETA = 0 
+ LAGS = 0 
+ LA1 = 0 
+ LA2 = 0 
+ LB0 = 0 
+ LB1 = 0 
+ LRDSW = 0 
+ LPRWG = 0 
+ LPRWB = 0 
+ LWR = 0 
+ LVOFF = 0 
+ LNFACTOR = 0 
+ LCDSC = 0 
+ LCDSCB = 0 
+ LCDSCD = 0 
+ LCIT = 0 
+ LETA0 = 0 
+ LETAB = 0 
+ LDSUB = 0 
+ LPCLM = 0 
+ LPDIBLC1 = 0 
+ LPDIBLC2 = 0 
+ LPDIBLCB = 0 
+ LDROUT = 0 
+ LPSCBE1 = 0 
+ LPSCBE2 = 0 
+ LPVAG = 0 
+ LDWG = 0 
+ LDWB = 0 
+ LALPHA0 = 0 
+ LBETA0 = 0 
+ LKT1 = 0 
+ LKT1L = 0 
+ LKT2 = 0 
+ LUTE = 0 
+ LAT = 0 
+ LPRT = 0 
+ LNCH = 0 
+ WXJ = 0 
+ WU0 = 0 
+ WVTH0 = 0 
+ WK1 = 0 
+ WK2 = 0 
+ WK3 = 0 
+ WK3B = 0 
+ WW0 = 0 
+ WNLX = 0 
+ WDVT0 = 0 
+ WDVT1 = 0 
+ WDVT2 = 0 
+ WDVT0W = 0 
+ WDVT1W = 0 
+ WDVT2W = 0 
+ WUA = 0 
+ WUB = 0 
+ WUC = 0 
+ WVSAT = 0 
+ WA0 = 0 
+ WKETA = 0 
+ WAGS = 0 
+ WA1 = 0 
+ WA2 = 0 
+ WB0 = 0 
+ WB1 = 0 
+ WRDSW = 0 
+ WPRWG = 0 
+ WPRWB = 0 
+ WWR = 0 
+ WVOFF = 0 
+ WNFACTOR = 0 
+ WCDSC = 0 
+ WCDSCB = 0 
+ WCDSCD = 0 
+ WCIT = 0 
+ WETA0 = 0 
+ WETAB = 0 
+ WDSUB = 0 
+ WPCLM = 0 
+ WPDIBLC1 = 0 
+ WPDIBLC2 = 0 
+ WPDIBLCB = 0 
+ WDROUT = 0 
+ WPSCBE1 = 0 
+ WPSCBE2 = 0 
+ WPVAG = 0 
+ WDWG = 0 
+ WDWB = 0 
+ WALPHA0 = 0 
+ WBETA0 = 0 
+ WKT1 = 0 
+ WKT1L = 0 
+ WKT2 = 0 
+ WUTE = 0 
+ WAT = 0 
+ WPRT = 0 
+ WNCH = 0 
+ PXJ = 0 
+ PU0 = 0 
+ PVTH0 = 0 
+ PK1 = 0 
+ PK2 = 0 
+ PK3 = 0 
+ PK3B = 0 
+ PW0 = 0 
+ PNLX = 0 
+ PDVT0 = 0 
+ PDVT1 = 0 
+ PDVT2 = 0 
+ PDVT0W = 0 
+ PDVT1W = 0 
+ PDVT2W = 0 
+ PUA = 0 
+ PUB = 0 
+ PUC = 0 
+ PVSAT = 0 
+ PA0 = 0 
+ PKETA = 0 
+ PAGS = 0 
+ PA1 = 0 
+ PA2 = 0 
+ PB0 = 0 
+ PB1 = 0 
+ PRDSW = 0 
+ PPRWG = 0 
+ PPRWB = 0 
+ PWR = 0 
+ PVOFF = 0 
+ PNFACTOR = 0 
+ PCDSC = 0 
+ PCDSCB = 0 
+ PCDSCD = 0 
+ PCIT = 0 
+ PETA0 = 0 
+ PETAB = 0 
+ PDSUB = 0 
+ PPCLM = 0 
+ PPDIBLC1 = 0 
+ PPDIBLC2 = 0 
+ PPDIBLCB = 0 
+ PDROUT = 0 
+ PPSCBE1 = 0 
+ PPSCBE2 = 0 
+ PPVAG = 0 
+ PDWG = 0 
+ PDWB = 0 
+ PALPHA0 = 0 
+ PBETA0 = 0 
+ PKT1 = 0 
+ PKT1L = 0 
+ PKT2 = 0 
+ PUTE = 0 
+ PAT = 0 
+ PPRT = 0 
+ PNCH = 0 
+ BINUNIT = 1 
+ ACM = 2
+ RSH = rshn
+ XL = xln
+ XW = xwn
+ LDIF = 0
+ HDIF = 6.4e-7
+ CF = '1.0E-8*3.4531438e-11/toxn'

******************* 1.8V NMOS7 *************************

.MODEL N.7 NMOS 
+ LMIN = 0.50e-6
+ LMAX = 1.00e-6
+ WMIN = 0.22e-6
+ WMAX = 0.50e-6
+ VERSION = 3.2
+ LEVEL = 53
+ MOBMOD = 3 
+ CAPMOD = 3 
+ TNOM = 25 
+ TOX = toxn
+ XJ = 1.5E-07 
+ NCH = 1.7E+17 
+ U0 = 276.8 
+ VTH0 = 'delvtn + 0.4769'
+ K1 = 0.4557 
+ K2 = -0.03839 
+ K3 = -1.902 
+ K3B = 2.585 
+ W0 = 1E-09 
+ NLX = 6.961E-08 
+ DVT0 = 1.637 
+ DVT1 = 0.9455 
+ DVT2 = -0.1 
+ DVT0W = 1E+06 
+ DVT1W = 6.9E+07 
+ DVT2W = -0.05 
+ LINT = 6.936E-10 
+ WINT = -1.86E-08 
+ DWG = 8.65E-09 
+ DWB = 0 
+ UA = -1.419E-09 
+ UB = 2.48E-18 
+ UC = 0.182 
+ VSAT = 1.569E+05 
+ DELTA = 0.01359 
+ A0 = 1.322 
+ B0 = 1E-09 
+ B1 = 0.0001 
+ AGS = 1.329 
+ KETA = -0.0297 
+ A1 = 0.07945 
+ A2 = 0.2162 
+ RDSW = 240.7 
+ PRWG = -0.09191 
+ PRWB = -4.441E-18 
+ WR = 0.7832 
+ VOFF = -0.1815 
+ NFACTOR = 1.355 
+ CDSC = -0.01155 
+ CDSCD = -0.0001 
+ CDSCB = -0.0111 
+ CIT = 0 
+ ETA0 = 0.01696 
+ ETAB = -0.08926 
+ DSUB = 0.3964 
+ PCLM = 1.499 
+ PDIBLC1 = 0.0798 
+ PDIBLC2 = 1E-05 
+ PDIBLCB = 0 
+ DROUT = 0.17 
+ PSCBE1 = 1E+06 
+ PSCBE2 = 0 
+ PVAG = 4.441E-15 
+ ALPHA0 = 9.739E-05 
+ BETA0 = 23.3 
+ UTE = -2.53 
+ KT1 = -0.2784 
+ KT1L = 1E-08 
+ KT2 = 4.441E-16 
+ UA1 = 5.053E-10 
+ UB1 = -2.279E-18 
+ UC1 = -1.444E-15 
+ AT = 1.412E+05 
+ PRT = -1 
*+ CGSO = 1E-12 
*+ CGSL = 1E-11 
*+ CGDL = 1E-11 
*+ CKAPPA = 0.6 
*+ CGDO = 1E-12 
*+ CGBO = 1E-12 
+ DLC = 6.936E-10 
+ DWC = -1.86E-08 
+ CLC = 1E-07 
+ CLE = 0.6 
*+ CF = 0 
+ ELM = 5 
+ CJ = 0.0009478 
+ VOFFCV = 0 
+ NOFF = 1 
+ CJSW = 2.968E-10 
+ PB = 0.7758 
+ PBSW = 1 
+ MJ = 0.2932 
+ MJSW = 0.4036 
+ TPB = 2.175E-09 
+ TPBSW = 1E-15 
+ TPBSWG = 0 
+ TCJ = 0.001 
+ TCJSW = 1.444E-15 
+ TCJSWG = 0 
+ XPART = 0 
+ JS = 6E-06 
+ WL = -1.4E-14 
+ WLN = 0.9994 
+ WW = 5.914E-10 
+ WWN = 0.001 
+ WWL = 0 
+ LL = 0 
+ LW = 0 
+ LWN = 0 
+ LWL = 0 
+ LLN = 1 
+ LXJ = 0 
+ LU0 = 0 
+ LVTH0 = 0 
+ LK1 = 0 
+ LK2 = 0 
+ LK3 = 0 
+ LK3B = 0 
+ LW0 = 0 
+ LNLX = 0 
+ LDVT0 = 0 
+ LDVT1 = 0 
+ LDVT2 = 0 
+ LDVT0W = 0 
+ LDVT1W = 0 
+ LDVT2W = 0 
+ LUA = 0 
+ LUB = 0 
+ LUC = 0 
+ LVSAT = 0 
+ LA0 = 0 
+ LKETA = 0 
+ LAGS = 0 
+ LA1 = 0 
+ LA2 = 0 
+ LB0 = 0 
+ LB1 = 0 
+ LRDSW = 0 
+ LPRWG = 0 
+ LPRWB = 0 
+ LWR = 0 
+ LVOFF = 0 
+ LNFACTOR = 0 
+ LCDSC = 0 
+ LCDSCB = 0 
+ LCDSCD = 0 
+ LCIT = 0 
+ LETA0 = 0 
+ LETAB = 0 
+ LDSUB = 0 
+ LPCLM = 0 
+ LPDIBLC1 = 0 
+ LPDIBLC2 = 0 
+ LPDIBLCB = 0 
+ LDROUT = 0 
+ LPSCBE1 = 0 
+ LPSCBE2 = 0 
+ LPVAG = 0 
+ LDWG = 0 
+ LDWB = 0 
+ LALPHA0 = 0 
+ LBETA0 = 0 
+ LKT1 = 0 
+ LKT1L = 0 
+ LKT2 = 0 
+ LUTE = 0 
+ LAT = 0 
+ LPRT = 0 
+ LNCH = 0 
+ WXJ = 0 
+ WU0 = 0 
+ WVTH0 = 0 
+ WK1 = 0 
+ WK2 = 0 
+ WK3 = 0 
+ WK3B = 0 
+ WW0 = 0 
+ WNLX = 0 
+ WDVT0 = 0 
+ WDVT1 = 0 
+ WDVT2 = 0 
+ WDVT0W = 0 
+ WDVT1W = 0 
+ WDVT2W = 0 
+ WUA = 0 
+ WUB = 0 
+ WUC = 0 
+ WVSAT = 0 
+ WA0 = 0 
+ WKETA = 0 
+ WAGS = 0 
+ WA1 = 0 
+ WA2 = 0 
+ WB0 = 0 
+ WB1 = 0 
+ WRDSW = 0 
+ WPRWG = 0 
+ WPRWB = 0 
+ WWR = 0 
+ WVOFF = 0 
+ WNFACTOR = 0 
+ WCDSC = 0 
+ WCDSCB = 0 
+ WCDSCD = 0 
+ WCIT = 0 
+ WETA0 = 0 
+ WETAB = 0 
+ WDSUB = 0 
+ WPCLM = 0 
+ WPDIBLC1 = 0 
+ WPDIBLC2 = 0 
+ WPDIBLCB = 0 
+ WDROUT = 0 
+ WPSCBE1 = 0 