** Generated for: hspiceD
** Generated on: Jun 13 21:33:30 2018
** Design library name: reram
** Design cell name: XORNET4
** Design view name: schematic
.PARAM blinresistor=2000
.PARAM blresistor=3000


.TRAN 10e-12 200e-9 START=0.0


.TEMP 25.0
.OPTION
+    ARTIST=2
+    INGOLD=2
+    PARHIER=LOCAL
+    PSF=2
.OPTION PROBE=1

.PROBE tran v(l0bl0)
.PROBE tran v(l0bl1)
.PROBE tran v(l0bl2)
.PROBE tran v(l0bl3)
.PROBE tran v(l0bl4)
.PROBE tran v(l0bl5)
.PROBE tran v(l0bl6)
.PROBE tran v(l0bl7)
.PROBE tran v(l0bl8)
.PROBE tran v(l0bl9)
.PROBE tran v(l0bl10)
.PROBE tran v(l0bl11)
.PROBE tran v(l0bl12)
.PROBE tran v(l0bl13)
.PROBE tran v(l0bl14)
.PROBE tran v(l0bl15)
.PROBE tran v(l0bl16)
.PROBE tran v(l0bl17)
.PROBE tran v(l0bl18)
.PROBE tran v(l0bl19)
.PROBE tran v(l0bl20)
.PROBE tran v(l0bl21)
.PROBE tran v(l0bl22)
.PROBE tran v(l0bl23)
.PROBE tran v(l0bl24)
.PROBE tran v(l0bl25)
.PROBE tran v(l0bl26)
.PROBE tran v(l0bl27)
.PROBE tran v(l0bl28)
.PROBE tran v(l0bl29)
.PROBE tran v(l0bl30)
.PROBE tran v(l0bl31)
.PROBE tran v(l0bl32)
.PROBE tran v(l0bl33)
.PROBE tran v(l0bl34)
.PROBE tran v(l0bl35)
.PROBE tran v(l0bl36)
.PROBE tran v(l0bl37)
.PROBE tran v(l0bl38)
.PROBE tran v(l0bl39)
.PROBE tran v(l0bl40)
.PROBE tran v(l0bl41)
.PROBE tran v(l0bl42)
.PROBE tran v(l0bl43)
.PROBE tran v(l0bl44)
.PROBE tran v(l0bl45)
.PROBE tran v(l0bl46)
.PROBE tran v(l0bl47)
.PROBE tran v(l0bl48)
.PROBE tran v(l0bl49)
.PROBE tran v(l0bl50)
.PROBE tran v(l0bl51)
.PROBE tran v(l0bl52)
.PROBE tran v(l0bl53)
.PROBE tran v(l0bl54)
.PROBE tran v(l0bl55)
.PROBE tran v(l0bl56)
.PROBE tran v(l0bl57)
.PROBE tran v(l0bl58)
.PROBE tran v(l0bl59)
.PROBE tran v(l0bl60)
.PROBE tran v(l0bl61)
.PROBE tran v(l0bl62)
.PROBE tran v(l0bl63)
.PROBE tran v(l0bl64)
.PROBE tran v(l0bl65)
.PROBE tran v(l0bl66)
.PROBE tran v(l0bl67)
.PROBE tran v(l0bl68)
.PROBE tran v(l0bl69)
.PROBE tran v(l0bl70)
.PROBE tran v(l0bl71)
.PROBE tran v(l0bl72)
.PROBE tran v(l0bl73)
.PROBE tran v(l0bl74)
.PROBE tran v(l0bl75)
.PROBE tran v(l0bl76)
.PROBE tran v(l0bl77)
.PROBE tran v(l0bl78)
.PROBE tran v(l0bl79)
.PROBE tran v(l0bl80)
.PROBE tran v(l0bl81)
.PROBE tran v(l0bl82)
.PROBE tran v(l0bl83)
.PROBE tran v(l0bl84)
.PROBE tran v(l0bl85)
.PROBE tran v(l0bl86)
.PROBE tran v(l0bl87)
.PROBE tran v(l0bl88)
.PROBE tran v(l0bl89)
.PROBE tran v(l0bl90)
.PROBE tran v(l0bl91)
.PROBE tran v(l0bl92)
.PROBE tran v(l0bl93)
.PROBE tran v(l0bl94)
.PROBE tran v(l0bl95)
.PROBE tran v(l0bl96)
.PROBE tran v(l0bl97)
.PROBE tran v(l0bl98)
.PROBE tran v(l0bl99)
.PROBE tran v(l0bl100)
.PROBE tran v(l0bl101)
.PROBE tran v(l0bl102)
.PROBE tran v(l0bl103)
.PROBE tran v(l0bl104)
.PROBE tran v(l0bl105)
.PROBE tran v(l0bl106)
.PROBE tran v(l0bl107)
.PROBE tran v(l0bl108)
.PROBE tran v(l0bl109)
.PROBE tran v(l0bl110)
.PROBE tran v(l0bl111)
.PROBE tran v(l0bl112)
.PROBE tran v(l0bl113)
.PROBE tran v(l0bl114)
.PROBE tran v(l0bl115)
.PROBE tran v(l0bl116)
.PROBE tran v(l0bl117)
.PROBE tran v(l0bl118)
.PROBE tran v(l0bl119)
.PROBE tran v(l0bl120)
.PROBE tran v(l0bl121)
.PROBE tran v(l0bl122)
.PROBE tran v(l0bl123)
.PROBE tran v(l0bl124)
.PROBE tran v(l0bl125)
.PROBE tran v(l0bl126)
.PROBE tran v(l0bl127)
.PROBE tran v(l0bl128)
.PROBE tran v(l0bl129)
.PROBE tran v(l0bl130)
.PROBE tran v(l0bl131)
.PROBE tran v(l0bl132)
.PROBE tran v(l0bl133)
.PROBE tran v(l0bl134)
.PROBE tran v(l0bl135)
.PROBE tran v(l0bl136)
.PROBE tran v(l0bl137)
.PROBE tran v(l0bl138)
.PROBE tran v(l0bl139)
.PROBE tran v(l0bl140)
.PROBE tran v(l0bl141)
.PROBE tran v(l0bl142)
.PROBE tran v(l0bl143)
.PROBE tran v(l0bl144)
.PROBE tran v(l0bl145)
.PROBE tran v(l0bl146)
.PROBE tran v(l0bl147)
.PROBE tran v(l0bl148)
.PROBE tran v(l0bl149)
.PROBE tran v(l0bl150)
.PROBE tran v(l0bl151)
.PROBE tran v(l0bl152)
.PROBE tran v(l0bl153)
.PROBE tran v(l0bl154)
.PROBE tran v(l0bl155)
.PROBE tran v(l0bl156)
.PROBE tran v(l0bl157)
.PROBE tran v(l0bl158)
.PROBE tran v(l0bl159)
.PROBE tran v(l0bl160)
.PROBE tran v(l0bl161)
.PROBE tran v(l0bl162)
.PROBE tran v(l0bl163)
.PROBE tran v(l0bl164)
.PROBE tran v(l0bl165)
.PROBE tran v(l0bl166)
.PROBE tran v(l0bl167)
.PROBE tran v(l0bl168)
.PROBE tran v(l0bl169)
.PROBE tran v(l0bl170)
.PROBE tran v(l0bl171)
.PROBE tran v(l0bl172)
.PROBE tran v(l0bl173)
.PROBE tran v(l0bl174)
.PROBE tran v(l0bl175)
.PROBE tran v(l0bl176)
.PROBE tran v(l0bl177)
.PROBE tran v(l0bl178)
.PROBE tran v(l0bl179)
.PROBE tran v(l0bl180)
.PROBE tran v(l0bl181)
.PROBE tran v(l0bl182)
.PROBE tran v(l0bl183)
.PROBE tran v(l0bl184)
.PROBE tran v(l0bl185)
.PROBE tran v(l0bl186)
.PROBE tran v(l0bl187)
.PROBE tran v(l0bl188)
.PROBE tran v(l0bl189)
.PROBE tran v(l0bl190)
.PROBE tran v(l0bl191)
.PROBE tran v(l0bl192)
.PROBE tran v(l0bl193)
.PROBE tran v(l0bl194)
.PROBE tran v(l0bl195)
.PROBE tran v(l0bl196)
.PROBE tran v(l0bl197)
.PROBE tran v(l0bl198)
.PROBE tran v(l0bl199)
.PROBE tran v(l0bl200)
.PROBE tran v(l0bl201)
.PROBE tran v(l0bl202)
.PROBE tran v(l0bl203)
.PROBE tran v(l0bl204)
.PROBE tran v(l0bl205)
.PROBE tran v(l0bl206)
.PROBE tran v(l0bl207)
.PROBE tran v(l0bl208)
.PROBE tran v(l0bl209)
.PROBE tran v(l0bl210)
.PROBE tran v(l0bl211)
.PROBE tran v(l0bl212)
.PROBE tran v(l0bl213)
.PROBE tran v(l0bl214)
.PROBE tran v(l0bl215)
.PROBE tran v(l0bl216)
.PROBE tran v(l0bl217)
.PROBE tran v(l0bl218)
.PROBE tran v(l0bl219)
.PROBE tran v(l0bl220)
.PROBE tran v(l0bl221)
.PROBE tran v(l0bl222)
.PROBE tran v(l0bl223)
.PROBE tran v(l0bl224)
.PROBE tran v(l0bl225)
.PROBE tran v(l0bl226)
.PROBE tran v(l0bl227)
.PROBE tran v(l0bl228)
.PROBE tran v(l0bl229)
.PROBE tran v(l0bl230)
.PROBE tran v(l0bl231)
.PROBE tran v(l0bl232)
.PROBE tran v(l0bl233)
.PROBE tran v(l0bl234)
.PROBE tran v(l0bl235)
.PROBE tran v(l0bl236)
.PROBE tran v(l0bl237)
.PROBE tran v(l0bl238)
.PROBE tran v(l0bl239)
.PROBE tran v(l0bl240)
.PROBE tran v(l0bl241)
.PROBE tran v(l0bl242)
.PROBE tran v(l0bl243)
.PROBE tran v(l0bl244)
.PROBE tran v(l0bl245)
.PROBE tran v(l0bl246)
.PROBE tran v(l0bl247)
.PROBE tran v(l0bl248)
.PROBE tran v(l0bl249)
.PROBE tran v(l0bl250)
.PROBE tran v(l0bl251)
.PROBE tran v(l0bl252)
.PROBE tran v(l0bl253)
.PROBE tran v(l0bl254)
.PROBE tran v(l0bl255)
.PROBE tran v(l0bl256)
.PROBE tran v(l0bl257)
.PROBE tran v(l0bl258)
.PROBE tran v(l0bl259)
.PROBE tran v(l0bl260)
.PROBE tran v(l0bl261)
.PROBE tran v(l0bl262)
.PROBE tran v(l0bl263)
.PROBE tran v(l0bl264)
.PROBE tran v(l0bl265)
.PROBE tran v(l0bl266)
.PROBE tran v(l0bl267)
.PROBE tran v(l0bl268)
.PROBE tran v(l0bl269)
.PROBE tran v(l0bl270)
.PROBE tran v(l0bl271)
.PROBE tran v(l0bl272)
.PROBE tran v(l0bl273)
.PROBE tran v(l0bl274)
.PROBE tran v(l0bl275)
.PROBE tran v(l0bl276)
.PROBE tran v(l0bl277)
.PROBE tran v(l0bl278)
.PROBE tran v(l0bl279)
.PROBE tran v(l0bl280)
.PROBE tran v(l0bl281)
.PROBE tran v(l0bl282)
.PROBE tran v(l0bl283)
.PROBE tran v(l0bl284)
.PROBE tran v(l0bl285)
.PROBE tran v(l0bl286)
.PROBE tran v(l0bl287)
.PROBE tran v(l0bl288)
.PROBE tran v(l0bl289)
.PROBE tran v(l0bl290)
.PROBE tran v(l0bl291)
.PROBE tran v(l0bl292)
.PROBE tran v(l0bl293)
.PROBE tran v(l0bl294)
.PROBE tran v(l0bl295)
.PROBE tran v(l0bl296)
.PROBE tran v(l0bl297)
.PROBE tran v(l0bl298)
.PROBE tran v(l0bl299)
.PROBE tran v(l0bl300)
.PROBE tran v(l0bl301)
.PROBE tran v(l0bl302)
.PROBE tran v(l0bl303)
.PROBE tran v(l0bl304)
.PROBE tran v(l0bl305)
.PROBE tran v(l0bl306)
.PROBE tran v(l0bl307)
.PROBE tran v(l0bl308)
.PROBE tran v(l0bl309)
.PROBE tran v(l0bl310)
.PROBE tran v(l0bl311)
.PROBE tran v(l0bl312)
.PROBE tran v(l0bl313)
.PROBE tran v(l0bl314)
.PROBE tran v(l0bl315)
.PROBE tran v(l0bl316)
.PROBE tran v(l0bl317)
.PROBE tran v(l0bl318)
.PROBE tran v(l0bl319)
.PROBE tran v(l0bl320)
.PROBE tran v(l0bl321)
.PROBE tran v(l0bl322)
.PROBE tran v(l0bl323)
.PROBE tran v(l0bl324)
.PROBE tran v(l0bl325)
.PROBE tran v(l0bl326)
.PROBE tran v(l0bl327)
.PROBE tran v(l0bl328)
.PROBE tran v(l0bl329)
.PROBE tran v(l0bl330)
.PROBE tran v(l0bl331)
.PROBE tran v(l0bl332)
.PROBE tran v(l0bl333)
.PROBE tran v(l0bl334)
.PROBE tran v(l0bl335)
.PROBE tran v(l0bl336)
.PROBE tran v(l0bl337)
.PROBE tran v(l0bl338)
.PROBE tran v(l0bl339)
.PROBE tran v(l0bl340)
.PROBE tran v(l0bl341)
.PROBE tran v(l0bl342)
.PROBE tran v(l0bl343)
.PROBE tran v(l0bl344)
.PROBE tran v(l0bl345)
.PROBE tran v(l0bl346)
.PROBE tran v(l0bl347)
.PROBE tran v(l0bl348)
.PROBE tran v(l0bl349)
.PROBE tran v(l0bl350)
.PROBE tran v(l0bl351)
.PROBE tran v(l0bl352)
.PROBE tran v(l0bl353)
.PROBE tran v(l0bl354)
.PROBE tran v(l0bl355)
.PROBE tran v(l0bl356)
.PROBE tran v(l0bl357)
.PROBE tran v(l0bl358)
.PROBE tran v(l0bl359)
.PROBE tran v(l0bl360)
.PROBE tran v(l0bl361)
.PROBE tran v(l0bl362)
.PROBE tran v(l0bl363)
.PROBE tran v(l0bl364)
.PROBE tran v(l0bl365)
.PROBE tran v(l0bl366)
.PROBE tran v(l0bl367)
.PROBE tran v(l0bl368)
.PROBE tran v(l0bl369)
.PROBE tran v(l0bl370)
.PROBE tran v(l0bl371)
.PROBE tran v(l0bl372)
.PROBE tran v(l0bl373)
.PROBE tran v(l0bl374)
.PROBE tran v(l0bl375)
.PROBE tran v(l0bl376)
.PROBE tran v(l0bl377)
.PROBE tran v(l0bl378)
.PROBE tran v(l0bl379)
.PROBE tran v(l0bl380)
.PROBE tran v(l0bl381)
.PROBE tran v(l0bl382)
.PROBE tran v(l0bl383)
.PROBE tran v(l0bl384)
.PROBE tran v(l0bl385)
.PROBE tran v(l0bl386)
.PROBE tran v(l0bl387)
.PROBE tran v(l0bl388)
.PROBE tran v(l0bl389)
.PROBE tran v(l0bl390)
.PROBE tran v(l0bl391)
.PROBE tran v(l0bl392)
.PROBE tran v(l0bl393)
.PROBE tran v(l0bl394)
.PROBE tran v(l0bl395)
.PROBE tran v(l0bl396)
.PROBE tran v(l0bl397)
.PROBE tran v(l0bl398)
.PROBE tran v(l0bl399)
.PROBE tran v(l0bl400)
.PROBE tran v(l0bl401)
.PROBE tran v(l0bl402)
.PROBE tran v(l0bl403)
.PROBE tran v(l0bl404)
.PROBE tran v(l0bl405)
.PROBE tran v(l0bl406)
.PROBE tran v(l0bl407)
.PROBE tran v(l0bl408)
.PROBE tran v(l0bl409)
.PROBE tran v(l0bl410)
.PROBE tran v(l0bl411)
.PROBE tran v(l0bl412)
.PROBE tran v(l0bl413)
.PROBE tran v(l0bl414)
.PROBE tran v(l0bl415)
.PROBE tran v(l0bl416)
.PROBE tran v(l0bl417)
.PROBE tran v(l0bl418)
.PROBE tran v(l0bl419)
.PROBE tran v(l0bl420)
.PROBE tran v(l0bl421)
.PROBE tran v(l0bl422)
.PROBE tran v(l0bl423)
.PROBE tran v(l0bl424)
.PROBE tran v(l0bl425)
.PROBE tran v(l0bl426)
.PROBE tran v(l0bl427)
.PROBE tran v(l0bl428)
.PROBE tran v(l0bl429)
.PROBE tran v(l0bl430)
.PROBE tran v(l0bl431)
.PROBE tran v(l0bl432)
.PROBE tran v(l0bl433)
.PROBE tran v(l0bl434)
.PROBE tran v(l0bl435)
.PROBE tran v(l0bl436)
.PROBE tran v(l0bl437)
.PROBE tran v(l0bl438)
.PROBE tran v(l0bl439)
.PROBE tran v(l0bl440)
.PROBE tran v(l0bl441)
.PROBE tran v(l0bl442)
.PROBE tran v(l0bl443)
.PROBE tran v(l0bl444)
.PROBE tran v(l0bl445)
.PROBE tran v(l0bl446)
.PROBE tran v(l0bl447)
.PROBE tran v(l0bl448)
.PROBE tran v(l0bl449)
.PROBE tran v(l0bl450)
.PROBE tran v(l0bl451)
.PROBE tran v(l0bl452)
.PROBE tran v(l0bl453)
.PROBE tran v(l0bl454)
.PROBE tran v(l0bl455)
.PROBE tran v(l0bl456)
.PROBE tran v(l0bl457)
.PROBE tran v(l0bl458)
.PROBE tran v(l0bl459)
.PROBE tran v(l0bl460)
.PROBE tran v(l0bl461)
.PROBE tran v(l0bl462)
.PROBE tran v(l0bl463)
.PROBE tran v(l0bl464)
.PROBE tran v(l0bl465)
.PROBE tran v(l0bl466)
.PROBE tran v(l0bl467)
.PROBE tran v(l0bl468)
.PROBE tran v(l0bl469)
.PROBE tran v(l0bl470)
.PROBE tran v(l0bl471)
.PROBE tran v(l0bl472)
.PROBE tran v(l0bl473)
.PROBE tran v(l0bl474)
.PROBE tran v(l0bl475)
.PROBE tran v(l0bl476)
.PROBE tran v(l0bl477)
.PROBE tran v(l0bl478)
.PROBE tran v(l0bl479)
.PROBE tran v(l0bl480)
.PROBE tran v(l0bl481)
.PROBE tran v(l0bl482)
.PROBE tran v(l0bl483)
.PROBE tran v(l0bl484)
.PROBE tran v(l0bl485)
.PROBE tran v(l0bl486)
.PROBE tran v(l0bl487)
.PROBE tran v(l0bl488)
.PROBE tran v(l0bl489)
.PROBE tran v(l0bl490)
.PROBE tran v(l0bl491)
.PROBE tran v(l0bl492)
.PROBE tran v(l0bl493)
.PROBE tran v(l0bl494)
.PROBE tran v(l0bl495)
.PROBE tran v(l0bl496)
.PROBE tran v(l0bl497)
.PROBE tran v(l0bl498)
.PROBE tran v(l0bl499)
.PROBE tran v(l0bl500)
.PROBE tran v(l0bl501)
.PROBE tran v(l0bl502)
.PROBE tran v(l0bl503)
.PROBE tran v(l0bl504)
.PROBE tran v(l0bl505)
.PROBE tran v(l0bl506)
.PROBE tran v(l0bl507)
.PROBE tran v(l0bl508)
.PROBE tran v(l0bl509)
.PROBE tran v(l0bl510)
.PROBE tran v(l0bl511)

.PROBE tran v(l1bl0)
.PROBE tran v(l1bl1)
.PROBE tran v(l1bl2)
.PROBE tran v(l1bl3)
.PROBE tran v(l1bl4)
.PROBE tran v(l1bl5)
.PROBE tran v(l1bl6)
.PROBE tran v(l1bl7)
.PROBE tran v(l1bl8)
.PROBE tran v(l1bl9)
.PROBE tran v(l1bl10)
.PROBE tran v(l1bl11)
.PROBE tran v(l1bl12)
.PROBE tran v(l1bl13)
.PROBE tran v(l1bl14)
.PROBE tran v(l1bl15)
.PROBE tran v(l1bl16)
.PROBE tran v(l1bl17)
.PROBE tran v(l1bl18)
.PROBE tran v(l1bl19)
.PROBE tran v(l1bl20)
.PROBE tran v(l1bl21)
.PROBE tran v(l1bl22)
.PROBE tran v(l1bl23)
.PROBE tran v(l1bl24)
.PROBE tran v(l1bl25)
.PROBE tran v(l1bl26)
.PROBE tran v(l1bl27)
.PROBE tran v(l1bl28)
.PROBE tran v(l1bl29)
.PROBE tran v(l1bl30)
.PROBE tran v(l1bl31)
.PROBE tran v(l1bl32)
.PROBE tran v(l1bl33)
.PROBE tran v(l1bl34)
.PROBE tran v(l1bl35)
.PROBE tran v(l1bl36)
.PROBE tran v(l1bl37)
.PROBE tran v(l1bl38)
.PROBE tran v(l1bl39)
.PROBE tran v(l1bl40)
.PROBE tran v(l1bl41)
.PROBE tran v(l1bl42)
.PROBE tran v(l1bl43)
.PROBE tran v(l1bl44)
.PROBE tran v(l1bl45)
.PROBE tran v(l1bl46)
.PROBE tran v(l1bl47)
.PROBE tran v(l1bl48)
.PROBE tran v(l1bl49)
.PROBE tran v(l1bl50)
.PROBE tran v(l1bl51)
.PROBE tran v(l1bl52)
.PROBE tran v(l1bl53)
.PROBE tran v(l1bl54)
.PROBE tran v(l1bl55)
.PROBE tran v(l1bl56)
.PROBE tran v(l1bl57)
.PROBE tran v(l1bl58)
.PROBE tran v(l1bl59)
.PROBE tran v(l1bl60)
.PROBE tran v(l1bl61)
.PROBE tran v(l1bl62)
.PROBE tran v(l1bl63)
.PROBE tran v(l1bl64)
.PROBE tran v(l1bl65)
.PROBE tran v(l1bl66)
.PROBE tran v(l1bl67)
.PROBE tran v(l1bl68)
.PROBE tran v(l1bl69)
.PROBE tran v(l1bl70)
.PROBE tran v(l1bl71)
.PROBE tran v(l1bl72)
.PROBE tran v(l1bl73)
.PROBE tran v(l1bl74)
.PROBE tran v(l1bl75)
.PROBE tran v(l1bl76)
.PROBE tran v(l1bl77)
.PROBE tran v(l1bl78)
.PROBE tran v(l1bl79)
.PROBE tran v(l1bl80)
.PROBE tran v(l1bl81)
.PROBE tran v(l1bl82)
.PROBE tran v(l1bl83)
.PROBE tran v(l1bl84)
.PROBE tran v(l1bl85)
.PROBE tran v(l1bl86)
.PROBE tran v(l1bl87)
.PROBE tran v(l1bl88)
.PROBE tran v(l1bl89)
.PROBE tran v(l1bl90)
.PROBE tran v(l1bl91)
.PROBE tran v(l1bl92)
.PROBE tran v(l1bl93)
.PROBE tran v(l1bl94)
.PROBE tran v(l1bl95)
.PROBE tran v(l1bl96)
.PROBE tran v(l1bl97)
.PROBE tran v(l1bl98)
.PROBE tran v(l1bl99)
.PROBE tran v(l1bl100)
.PROBE tran v(l1bl101)
.PROBE tran v(l1bl102)
.PROBE tran v(l1bl103)
.PROBE tran v(l1bl104)
.PROBE tran v(l1bl105)
.PROBE tran v(l1bl106)
.PROBE tran v(l1bl107)
.PROBE tran v(l1bl108)
.PROBE tran v(l1bl109)
.PROBE tran v(l1bl110)
.PROBE tran v(l1bl111)
.PROBE tran v(l1bl112)
.PROBE tran v(l1bl113)
.PROBE tran v(l1bl114)
.PROBE tran v(l1bl115)
.PROBE tran v(l1bl116)
.PROBE tran v(l1bl117)
.PROBE tran v(l1bl118)
.PROBE tran v(l1bl119)
.PROBE tran v(l1bl120)
.PROBE tran v(l1bl121)
.PROBE tran v(l1bl122)
.PROBE tran v(l1bl123)
.PROBE tran v(l1bl124)
.PROBE tran v(l1bl125)
.PROBE tran v(l1bl126)
.PROBE tran v(l1bl127)
.PROBE tran v(l1bl128)
.PROBE tran v(l1bl129)
.PROBE tran v(l1bl130)
.PROBE tran v(l1bl131)
.PROBE tran v(l1bl132)
.PROBE tran v(l1bl133)
.PROBE tran v(l1bl134)
.PROBE tran v(l1bl135)
.PROBE tran v(l1bl136)
.PROBE tran v(l1bl137)
.PROBE tran v(l1bl138)
.PROBE tran v(l1bl139)
.PROBE tran v(l1bl140)
.PROBE tran v(l1bl141)
.PROBE tran v(l1bl142)
.PROBE tran v(l1bl143)
.PROBE tran v(l1bl144)
.PROBE tran v(l1bl145)
.PROBE tran v(l1bl146)
.PROBE tran v(l1bl147)
.PROBE tran v(l1bl148)
.PROBE tran v(l1bl149)
.PROBE tran v(l1bl150)
.PROBE tran v(l1bl151)
.PROBE tran v(l1bl152)
.PROBE tran v(l1bl153)
.PROBE tran v(l1bl154)
.PROBE tran v(l1bl155)
.PROBE tran v(l1bl156)
.PROBE tran v(l1bl157)
.PROBE tran v(l1bl158)
.PROBE tran v(l1bl159)
.PROBE tran v(l1bl160)
.PROBE tran v(l1bl161)
.PROBE tran v(l1bl162)
.PROBE tran v(l1bl163)
.PROBE tran v(l1bl164)
.PROBE tran v(l1bl165)
.PROBE tran v(l1bl166)
.PROBE tran v(l1bl167)
.PROBE tran v(l1bl168)
.PROBE tran v(l1bl169)
.PROBE tran v(l1bl170)
.PROBE tran v(l1bl171)
.PROBE tran v(l1bl172)
.PROBE tran v(l1bl173)
.PROBE tran v(l1bl174)
.PROBE tran v(l1bl175)
.PROBE tran v(l1bl176)
.PROBE tran v(l1bl177)
.PROBE tran v(l1bl178)
.PROBE tran v(l1bl179)
.PROBE tran v(l1bl180)
.PROBE tran v(l1bl181)
.PROBE tran v(l1bl182)
.PROBE tran v(l1bl183)
.PROBE tran v(l1bl184)
.PROBE tran v(l1bl185)
.PROBE tran v(l1bl186)
.PROBE tran v(l1bl187)
.PROBE tran v(l1bl188)
.PROBE tran v(l1bl189)
.PROBE tran v(l1bl190)
.PROBE tran v(l1bl191)
.PROBE tran v(l1bl192)
.PROBE tran v(l1bl193)
.PROBE tran v(l1bl194)
.PROBE tran v(l1bl195)
.PROBE tran v(l1bl196)
.PROBE tran v(l1bl197)
.PROBE tran v(l1bl198)
.PROBE tran v(l1bl199)
.PROBE tran v(l1bl200)
.PROBE tran v(l1bl201)
.PROBE tran v(l1bl202)
.PROBE tran v(l1bl203)
.PROBE tran v(l1bl204)
.PROBE tran v(l1bl205)
.PROBE tran v(l1bl206)
.PROBE tran v(l1bl207)
.PROBE tran v(l1bl208)
.PROBE tran v(l1bl209)
.PROBE tran v(l1bl210)
.PROBE tran v(l1bl211)
.PROBE tran v(l1bl212)
.PROBE tran v(l1bl213)
.PROBE tran v(l1bl214)
.PROBE tran v(l1bl215)
.PROBE tran v(l1bl216)
.PROBE tran v(l1bl217)
.PROBE tran v(l1bl218)
.PROBE tran v(l1bl219)
.PROBE tran v(l1bl220)
.PROBE tran v(l1bl221)
.PROBE tran v(l1bl222)
.PROBE tran v(l1bl223)
.PROBE tran v(l1bl224)
.PROBE tran v(l1bl225)
.PROBE tran v(l1bl226)
.PROBE tran v(l1bl227)
.PROBE tran v(l1bl228)
.PROBE tran v(l1bl229)
.PROBE tran v(l1bl230)
.PROBE tran v(l1bl231)
.PROBE tran v(l1bl232)
.PROBE tran v(l1bl233)
.PROBE tran v(l1bl234)
.PROBE tran v(l1bl235)
.PROBE tran v(l1bl236)
.PROBE tran v(l1bl237)
.PROBE tran v(l1bl238)
.PROBE tran v(l1bl239)
.PROBE tran v(l1bl240)
.PROBE tran v(l1bl241)
.PROBE tran v(l1bl242)
.PROBE tran v(l1bl243)
.PROBE tran v(l1bl244)
.PROBE tran v(l1bl245)
.PROBE tran v(l1bl246)
.PROBE tran v(l1bl247)
.PROBE tran v(l1bl248)
.PROBE tran v(l1bl249)
.PROBE tran v(l1bl250)
.PROBE tran v(l1bl251)
.PROBE tran v(l1bl252)
.PROBE tran v(l1bl253)
.PROBE tran v(l1bl254)
.PROBE tran v(l1bl255)
.PROBE tran v(l1bl256)
.PROBE tran v(l1bl257)
.PROBE tran v(l1bl258)
.PROBE tran v(l1bl259)
.PROBE tran v(l1bl260)
.PROBE tran v(l1bl261)
.PROBE tran v(l1bl262)
.PROBE tran v(l1bl263)
.PROBE tran v(l1bl264)
.PROBE tran v(l1bl265)
.PROBE tran v(l1bl266)
.PROBE tran v(l1bl267)
.PROBE tran v(l1bl268)
.PROBE tran v(l1bl269)
.PROBE tran v(l1bl270)
.PROBE tran v(l1bl271)
.PROBE tran v(l1bl272)
.PROBE tran v(l1bl273)
.PROBE tran v(l1bl274)
.PROBE tran v(l1bl275)
.PROBE tran v(l1bl276)
.PROBE tran v(l1bl277)
.PROBE tran v(l1bl278)
.PROBE tran v(l1bl279)
.PROBE tran v(l1bl280)
.PROBE tran v(l1bl281)
.PROBE tran v(l1bl282)
.PROBE tran v(l1bl283)
.PROBE tran v(l1bl284)
.PROBE tran v(l1bl285)
.PROBE tran v(l1bl286)
.PROBE tran v(l1bl287)
.PROBE tran v(l1bl288)
.PROBE tran v(l1bl289)
.PROBE tran v(l1bl290)
.PROBE tran v(l1bl291)
.PROBE tran v(l1bl292)
.PROBE tran v(l1bl293)
.PROBE tran v(l1bl294)
.PROBE tran v(l1bl295)
.PROBE tran v(l1bl296)
.PROBE tran v(l1bl297)
.PROBE tran v(l1bl298)
.PROBE tran v(l1bl299)
.PROBE tran v(l1bl300)
.PROBE tran v(l1bl301)
.PROBE tran v(l1bl302)
.PROBE tran v(l1bl303)
.PROBE tran v(l1bl304)
.PROBE tran v(l1bl305)
.PROBE tran v(l1bl306)
.PROBE tran v(l1bl307)
.PROBE tran v(l1bl308)
.PROBE tran v(l1bl309)
.PROBE tran v(l1bl310)
.PROBE tran v(l1bl311)
.PROBE tran v(l1bl312)
.PROBE tran v(l1bl313)
.PROBE tran v(l1bl314)
.PROBE tran v(l1bl315)
.PROBE tran v(l1bl316)
.PROBE tran v(l1bl317)
.PROBE tran v(l1bl318)
.PROBE tran v(l1bl319)
.PROBE tran v(l1bl320)
.PROBE tran v(l1bl321)
.PROBE tran v(l1bl322)
.PROBE tran v(l1bl323)
.PROBE tran v(l1bl324)
.PROBE tran v(l1bl325)
.PROBE tran v(l1bl326)
.PROBE tran v(l1bl327)
.PROBE tran v(l1bl328)
.PROBE tran v(l1bl329)
.PROBE tran v(l1bl330)
.PROBE tran v(l1bl331)
.PROBE tran v(l1bl332)
.PROBE tran v(l1bl333)
.PROBE tran v(l1bl334)
.PROBE tran v(l1bl335)
.PROBE tran v(l1bl336)
.PROBE tran v(l1bl337)
.PROBE tran v(l1bl338)
.PROBE tran v(l1bl339)
.PROBE tran v(l1bl340)
.PROBE tran v(l1bl341)
.PROBE tran v(l1bl342)
.PROBE tran v(l1bl343)
.PROBE tran v(l1bl344)
.PROBE tran v(l1bl345)
.PROBE tran v(l1bl346)
.PROBE tran v(l1bl347)
.PROBE tran v(l1bl348)
.PROBE tran v(l1bl349)
.PROBE tran v(l1bl350)
.PROBE tran v(l1bl351)
.PROBE tran v(l1bl352)
.PROBE tran v(l1bl353)
.PROBE tran v(l1bl354)
.PROBE tran v(l1bl355)
.PROBE tran v(l1bl356)
.PROBE tran v(l1bl357)
.PROBE tran v(l1bl358)
.PROBE tran v(l1bl359)
.PROBE tran v(l1bl360)
.PROBE tran v(l1bl361)
.PROBE tran v(l1bl362)
.PROBE tran v(l1bl363)
.PROBE tran v(l1bl364)
.PROBE tran v(l1bl365)
.PROBE tran v(l1bl366)
.PROBE tran v(l1bl367)
.PROBE tran v(l1bl368)
.PROBE tran v(l1bl369)
.PROBE tran v(l1bl370)
.PROBE tran v(l1bl371)
.PROBE tran v(l1bl372)
.PROBE tran v(l1bl373)
.PROBE tran v(l1bl374)
.PROBE tran v(l1bl375)
.PROBE tran v(l1bl376)
.PROBE tran v(l1bl377)
.PROBE tran v(l1bl378)
.PROBE tran v(l1bl379)
.PROBE tran v(l1bl380)
.PROBE tran v(l1bl381)
.PROBE tran v(l1bl382)
.PROBE tran v(l1bl383)
.PROBE tran v(l1bl384)
.PROBE tran v(l1bl385)
.PROBE tran v(l1bl386)
.PROBE tran v(l1bl387)
.PROBE tran v(l1bl388)
.PROBE tran v(l1bl389)
.PROBE tran v(l1bl390)
.PROBE tran v(l1bl391)
.PROBE tran v(l1bl392)
.PROBE tran v(l1bl393)
.PROBE tran v(l1bl394)
.PROBE tran v(l1bl395)
.PROBE tran v(l1bl396)
.PROBE tran v(l1bl397)
.PROBE tran v(l1bl398)
.PROBE tran v(l1bl399)
.PROBE tran v(l1bl400)
.PROBE tran v(l1bl401)
.PROBE tran v(l1bl402)
.PROBE tran v(l1bl403)
.PROBE tran v(l1bl404)
.PROBE tran v(l1bl405)
.PROBE tran v(l1bl406)
.PROBE tran v(l1bl407)
.PROBE tran v(l1bl408)
.PROBE tran v(l1bl409)
.PROBE tran v(l1bl410)
.PROBE tran v(l1bl411)
.PROBE tran v(l1bl412)
.PROBE tran v(l1bl413)
.PROBE tran v(l1bl414)
.PROBE tran v(l1bl415)
.PROBE tran v(l1bl416)
.PROBE tran v(l1bl417)
.PROBE tran v(l1bl418)
.PROBE tran v(l1bl419)
.PROBE tran v(l1bl420)
.PROBE tran v(l1bl421)
.PROBE tran v(l1bl422)
.PROBE tran v(l1bl423)
.PROBE tran v(l1bl424)
.PROBE tran v(l1bl425)
.PROBE tran v(l1bl426)
.PROBE tran v(l1bl427)
.PROBE tran v(l1bl428)
.PROBE tran v(l1bl429)
.PROBE tran v(l1bl430)
.PROBE tran v(l1bl431)
.PROBE tran v(l1bl432)
.PROBE tran v(l1bl433)
.PROBE tran v(l1bl434)
.PROBE tran v(l1bl435)
.PROBE tran v(l1bl436)
.PROBE tran v(l1bl437)
.PROBE tran v(l1bl438)
.PROBE tran v(l1bl439)
.PROBE tran v(l1bl440)
.PROBE tran v(l1bl441)
.PROBE tran v(l1bl442)
.PROBE tran v(l1bl443)
.PROBE tran v(l1bl444)
.PROBE tran v(l1bl445)
.PROBE tran v(l1bl446)
.PROBE tran v(l1bl447)
.PROBE tran v(l1bl448)
.PROBE tran v(l1bl449)
.PROBE tran v(l1bl450)
.PROBE tran v(l1bl451)
.PROBE tran v(l1bl452)
.PROBE tran v(l1bl453)
.PROBE tran v(l1bl454)
.PROBE tran v(l1bl455)
.PROBE tran v(l1bl456)
.PROBE tran v(l1bl457)
.PROBE tran v(l1bl458)
.PROBE tran v(l1bl459)
.PROBE tran v(l1bl460)
.PROBE tran v(l1bl461)
.PROBE tran v(l1bl462)
.PROBE tran v(l1bl463)
.PROBE tran v(l1bl464)
.PROBE tran v(l1bl465)
.PROBE tran v(l1bl466)
.PROBE tran v(l1bl467)
.PROBE tran v(l1bl468)
.PROBE tran v(l1bl469)
.PROBE tran v(l1bl470)
.PROBE tran v(l1bl471)
.PROBE tran v(l1bl472)
.PROBE tran v(l1bl473)
.PROBE tran v(l1bl474)
.PROBE tran v(l1bl475)
.PROBE tran v(l1bl476)
.PROBE tran v(l1bl477)
.PROBE tran v(l1bl478)
.PROBE tran v(l1bl479)
.PROBE tran v(l1bl480)
.PROBE tran v(l1bl481)
.PROBE tran v(l1bl482)
.PROBE tran v(l1bl483)
.PROBE tran v(l1bl484)
.PROBE tran v(l1bl485)
.PROBE tran v(l1bl486)
.PROBE tran v(l1bl487)
.PROBE tran v(l1bl488)
.PROBE tran v(l1bl489)
.PROBE tran v(l1bl490)
.PROBE tran v(l1bl491)
.PROBE tran v(l1bl492)
.PROBE tran v(l1bl493)
.PROBE tran v(l1bl494)
.PROBE tran v(l1bl495)
.PROBE tran v(l1bl496)
.PROBE tran v(l1bl497)
.PROBE tran v(l1bl498)
.PROBE tran v(l1bl499)
.PROBE tran v(l1bl500)
.PROBE tran v(l1bl501)
.PROBE tran v(l1bl502)
.PROBE tran v(l1bl503)
.PROBE tran v(l1bl504)
.PROBE tran v(l1bl505)
.PROBE tran v(l1bl506)
.PROBE tran v(l1bl507)
.PROBE tran v(l1bl508)
.PROBE tran v(l1bl509)
.PROBE tran v(l1bl510)
.PROBE tran v(l1bl511)

.PROBE tran v(l2bl0)
.PROBE tran v(l2bl1)
.PROBE tran v(l2bl2)
.PROBE tran v(l2bl3)
.PROBE tran v(l2bl4)
.PROBE tran v(l2bl5)
.PROBE tran v(l2bl6)
.PROBE tran v(l2bl7)
.PROBE tran v(l2bl8)
.PROBE tran v(l2bl9)
.PROBE tran v(l2bl10)
.PROBE tran v(l2bl11)
.PROBE tran v(l2bl12)
.PROBE tran v(l2bl13)
.PROBE tran v(l2bl14)
.PROBE tran v(l2bl15)
.PROBE tran v(l2bl16)
.PROBE tran v(l2bl17)
.PROBE tran v(l2bl18)
.PROBE tran v(l2bl19)
.PROBE tran v(l2bl20)
.PROBE tran v(l2bl21)
.PROBE tran v(l2bl22)
.PROBE tran v(l2bl23)
.PROBE tran v(l2bl24)
.PROBE tran v(l2bl25)
.PROBE tran v(l2bl26)
.PROBE tran v(l2bl27)
.PROBE tran v(l2bl28)
.PROBE tran v(l2bl29)
.PROBE tran v(l2bl30)
.PROBE tran v(l2bl31)
.PROBE tran v(l2bl32)
.PROBE tran v(l2bl33)
.PROBE tran v(l2bl34)
.PROBE tran v(l2bl35)
.PROBE tran v(l2bl36)
.PROBE tran v(l2bl37)
.PROBE tran v(l2bl38)
.PROBE tran v(l2bl39)
.PROBE tran v(l2bl40)
.PROBE tran v(l2bl41)
.PROBE tran v(l2bl42)
.PROBE tran v(l2bl43)
.PROBE tran v(l2bl44)
.PROBE tran v(l2bl45)
.PROBE tran v(l2bl46)
.PROBE tran v(l2bl47)
.PROBE tran v(l2bl48)
.PROBE tran v(l2bl49)
.PROBE tran v(l2bl50)
.PROBE tran v(l2bl51)
.PROBE tran v(l2bl52)
.PROBE tran v(l2bl53)
.PROBE tran v(l2bl54)
.PROBE tran v(l2bl55)
.PROBE tran v(l2bl56)
.PROBE tran v(l2bl57)
.PROBE tran v(l2bl58)
.PROBE tran v(l2bl59)
.PROBE tran v(l2bl60)
.PROBE tran v(l2bl61)
.PROBE tran v(l2bl62)
.PROBE tran v(l2bl63)
.PROBE tran v(l2bl64)
.PROBE tran v(l2bl65)
.PROBE tran v(l2bl66)
.PROBE tran v(l2bl67)
.PROBE tran v(l2bl68)
.PROBE tran v(l2bl69)
.PROBE tran v(l2bl70)
.PROBE tran v(l2bl71)
.PROBE tran v(l2bl72)
.PROBE tran v(l2bl73)
.PROBE tran v(l2bl74)
.PROBE tran v(l2bl75)
.PROBE tran v(l2bl76)
.PROBE tran v(l2bl77)
.PROBE tran v(l2bl78)
.PROBE tran v(l2bl79)
.PROBE tran v(l2bl80)
.PROBE tran v(l2bl81)
.PROBE tran v(l2bl82)
.PROBE tran v(l2bl83)
.PROBE tran v(l2bl84)
.PROBE tran v(l2bl85)
.PROBE tran v(l2bl86)
.PROBE tran v(l2bl87)
.PROBE tran v(l2bl88)
.PROBE tran v(l2bl89)
.PROBE tran v(l2bl90)
.PROBE tran v(l2bl91)
.PROBE tran v(l2bl92)
.PROBE tran v(l2bl93)
.PROBE tran v(l2bl94)
.PROBE tran v(l2bl95)
.PROBE tran v(l2bl96)
.PROBE tran v(l2bl97)
.PROBE tran v(l2bl98)
.PROBE tran v(l2bl99)
.PROBE tran v(l2bl100)
.PROBE tran v(l2bl101)
.PROBE tran v(l2bl102)
.PROBE tran v(l2bl103)
.PROBE tran v(l2bl104)
.PROBE tran v(l2bl105)
.PROBE tran v(l2bl106)
.PROBE tran v(l2bl107)
.PROBE tran v(l2bl108)
.PROBE tran v(l2bl109)
.PROBE tran v(l2bl110)
.PROBE tran v(l2bl111)
.PROBE tran v(l2bl112)
.PROBE tran v(l2bl113)
.PROBE tran v(l2bl114)
.PROBE tran v(l2bl115)
.PROBE tran v(l2bl116)
.PROBE tran v(l2bl117)
.PROBE tran v(l2bl118)
.PROBE tran v(l2bl119)
.PROBE tran v(l2bl120)
.PROBE tran v(l2bl121)
.PROBE tran v(l2bl122)
.PROBE tran v(l2bl123)
.PROBE tran v(l2bl124)
.PROBE tran v(l2bl125)
.PROBE tran v(l2bl126)
.PROBE tran v(l2bl127)
.PROBE tran v(l2bl128)
.PROBE tran v(l2bl129)
.PROBE tran v(l2bl130)
.PROBE tran v(l2bl131)
.PROBE tran v(l2bl132)
.PROBE tran v(l2bl133)
.PROBE tran v(l2bl134)
.PROBE tran v(l2bl135)
.PROBE tran v(l2bl136)
.PROBE tran v(l2bl137)
.PROBE tran v(l2bl138)
.PROBE tran v(l2bl139)
.PROBE tran v(l2bl140)
.PROBE tran v(l2bl141)
.PROBE tran v(l2bl142)
.PROBE tran v(l2bl143)
.PROBE tran v(l2bl144)
.PROBE tran v(l2bl145)
.PROBE tran v(l2bl146)
.PROBE tran v(l2bl147)
.PROBE tran v(l2bl148)
.PROBE tran v(l2bl149)
.PROBE tran v(l2bl150)
.PROBE tran v(l2bl151)
.PROBE tran v(l2bl152)
.PROBE tran v(l2bl153)
.PROBE tran v(l2bl154)
.PROBE tran v(l2bl155)
.PROBE tran v(l2bl156)
.PROBE tran v(l2bl157)
.PROBE tran v(l2bl158)
.PROBE tran v(l2bl159)
.PROBE tran v(l2bl160)
.PROBE tran v(l2bl161)
.PROBE tran v(l2bl162)
.PROBE tran v(l2bl163)
.PROBE tran v(l2bl164)
.PROBE tran v(l2bl165)
.PROBE tran v(l2bl166)
.PROBE tran v(l2bl167)
.PROBE tran v(l2bl168)
.PROBE tran v(l2bl169)
.PROBE tran v(l2bl170)
.PROBE tran v(l2bl171)
.PROBE tran v(l2bl172)
.PROBE tran v(l2bl173)
.PROBE tran v(l2bl174)
.PROBE tran v(l2bl175)
.PROBE tran v(l2bl176)
.PROBE tran v(l2bl177)
.PROBE tran v(l2bl178)
.PROBE tran v(l2bl179)
.PROBE tran v(l2bl180)
.PROBE tran v(l2bl181)
.PROBE tran v(l2bl182)
.PROBE tran v(l2bl183)
.PROBE tran v(l2bl184)
.PROBE tran v(l2bl185)
.PROBE tran v(l2bl186)
.PROBE tran v(l2bl187)
.PROBE tran v(l2bl188)
.PROBE tran v(l2bl189)
.PROBE tran v(l2bl190)
.PROBE tran v(l2bl191)
.PROBE tran v(l2bl192)
.PROBE tran v(l2bl193)
.PROBE tran v(l2bl194)
.PROBE tran v(l2bl195)
.PROBE tran v(l2bl196)
.PROBE tran v(l2bl197)
.PROBE tran v(l2bl198)
.PROBE tran v(l2bl199)
.PROBE tran v(l2bl200)
.PROBE tran v(l2bl201)
.PROBE tran v(l2bl202)
.PROBE tran v(l2bl203)
.PROBE tran v(l2bl204)
.PROBE tran v(l2bl205)
.PROBE tran v(l2bl206)
.PROBE tran v(l2bl207)
.PROBE tran v(l2bl208)
.PROBE tran v(l2bl209)
.PROBE tran v(l2bl210)
.PROBE tran v(l2bl211)
.PROBE tran v(l2bl212)
.PROBE tran v(l2bl213)
.PROBE tran v(l2bl214)
.PROBE tran v(l2bl215)
.PROBE tran v(l2bl216)
.PROBE tran v(l2bl217)
.PROBE tran v(l2bl218)
.PROBE tran v(l2bl219)
.PROBE tran v(l2bl220)
.PROBE tran v(l2bl221)
.PROBE tran v(l2bl222)
.PROBE tran v(l2bl223)
.PROBE tran v(l2bl224)
.PROBE tran v(l2bl225)
.PROBE tran v(l2bl226)
.PROBE tran v(l2bl227)
.PROBE tran v(l2bl228)
.PROBE tran v(l2bl229)
.PROBE tran v(l2bl230)
.PROBE tran v(l2bl231)
.PROBE tran v(l2bl232)
.PROBE tran v(l2bl233)
.PROBE tran v(l2bl234)
.PROBE tran v(l2bl235)
.PROBE tran v(l2bl236)
.PROBE tran v(l2bl237)
.PROBE tran v(l2bl238)
.PROBE tran v(l2bl239)
.PROBE tran v(l2bl240)
.PROBE tran v(l2bl241)
.PROBE tran v(l2bl242)
.PROBE tran v(l2bl243)
.PROBE tran v(l2bl244)
.PROBE tran v(l2bl245)
.PROBE tran v(l2bl246)
.PROBE tran v(l2bl247)
.PROBE tran v(l2bl248)
.PROBE tran v(l2bl249)
.PROBE tran v(l2bl250)
.PROBE tran v(l2bl251)
.PROBE tran v(l2bl252)
.PROBE tran v(l2bl253)
.PROBE tran v(l2bl254)
.PROBE tran v(l2bl255)
.PROBE tran v(l2bl256)
.PROBE tran v(l2bl257)
.PROBE tran v(l2bl258)
.PROBE tran v(l2bl259)
.PROBE tran v(l2bl260)
.PROBE tran v(l2bl261)
.PROBE tran v(l2bl262)
.PROBE tran v(l2bl263)
.PROBE tran v(l2bl264)
.PROBE tran v(l2bl265)
.PROBE tran v(l2bl266)
.PROBE tran v(l2bl267)
.PROBE tran v(l2bl268)
.PROBE tran v(l2bl269)
.PROBE tran v(l2bl270)
.PROBE tran v(l2bl271)
.PROBE tran v(l2bl272)
.PROBE tran v(l2bl273)
.PROBE tran v(l2bl274)
.PROBE tran v(l2bl275)
.PROBE tran v(l2bl276)
.PROBE tran v(l2bl277)
.PROBE tran v(l2bl278)
.PROBE tran v(l2bl279)